<?xml version="1.0" encoding="UTF-8"?>

<!-- generated on 2023-06-15 09:10:36 by Eclipse SUMO netconvert Version v1_17_0+0919-6a4cbcaacb7
<configuration xmlns:xsi="http://www.w3.org/2001/XMLSchema-instance" xsi:noNamespaceSchemaLocation="http://sumo.dlr.de/xsd/netconvertConfiguration.xsd">

    <input>
        <node-files value="sumo-config/schwarze_pumpe_v2.nod.xml"/>
        <edge-files value="sumo-config/schwarze_pumpe_v2.edg.xml"/>
        <connection-files value="sumo-config/schwarze_pumpe_v2.con.xml"/>
    </input>

    <output>
        <output-file value="sumo-config/schwarze_pumpe_v2.net.xml"/>
    </output>

    <junctions>
        <no-internal-links value="true"/>
        <junctions.minimal-shape value="true"/>
    </junctions>

    <railway>
        <railway.topology.repair value="true"/>
        <railway.topology.repair.connect-straight value="true"/>
        <railway.topology.all-bidi value="false"/>
    </railway>

</configuration>
-->

<net version="1.16" junctionCornerDetail="5" limitTurnSpeed="5.50" xmlns:xsi="http://www.w3.org/2001/XMLSchema-instance" xsi:noNamespaceSchemaLocation="http://sumo.dlr.de/xsd/net_file.xsd">

    <location netOffset="2506174.81,-3459405.32" convBoundary="0.00,0.00,12719.19,11737.42" origBoundary="-2506174.81,3459405.32,-2493455.62,3471142.74" projParameter="!"/>

    <edge id="001e2-0" from="eecc8" to="57713" priority="-1" spreadType="center" shape="11435.77,2087.06 11464.21,2046.15 11481.67,2020.05" bidi="001e2-0-re">
        <lane id="001e2-0_0" index="0" allow="rail rail_electric" speed="110.00" length="81.23" shape="11435.77,2087.06 11464.21,2046.15 11481.67,2020.05"/>
    </edge>
    <edge id="001e2-0-re" from="57713" to="eecc8" priority="-1" spreadType="center" shape="11481.67,2020.05 11464.21,2046.15 11435.77,2087.06" bidi="001e2-0">
        <lane id="001e2-0-re_0" index="0" allow="rail rail_electric" speed="110.00" length="81.23" shape="11481.67,2020.05 11464.21,2046.15 11435.77,2087.06"/>
    </edge>
    <edge id="00f91-0" from="59193" to="fb754" priority="-1" spreadType="center" bidi="00f91-0-re">
        <lane id="00f91-0_0" index="0" allow="rail rail_electric" speed="110.00" length="52.23" shape="9137.93,5771.29 9143.25,5823.14"/>
    </edge>
    <edge id="00f91-0-re" from="fb754" to="59193" priority="-1" spreadType="center" bidi="00f91-0">
        <lane id="00f91-0-re_0" index="0" allow="rail rail_electric" speed="110.00" length="52.23" shape="9143.25,5823.14 9137.93,5771.29"/>
    </edge>
    <edge id="01074-0" from="c888a" to="d9c18bc9-9814-48f2-ab35-d2a280b01074-km-25-in" priority="-1" spreadType="center" bidi="01074-0-re">
        <lane id="01074-0_0" index="0" allow="rail rail_electric" speed="110.00" length="25.00" shape="8910.49,6216.08 8892.53,6233.47"/>
    </edge>
    <edge id="01074-0-re" from="d9c18bc9-9814-48f2-ab35-d2a280b01074-km-25-in" to="c888a" priority="-1" spreadType="center" bidi="01074-0">
        <lane id="01074-0-re_0" index="0" allow="rail rail_electric" speed="110.00" length="25.00" shape="8892.53,6233.47 8910.49,6216.08"/>
    </edge>
    <edge id="01074-1" from="d9c18bc9-9814-48f2-ab35-d2a280b01074-km-25-in" to="d9c18bc9-9814-48f2-ab35-d2a280b01074-km-45-gegen" priority="-1" spreadType="center" bidi="01074-1-re">
        <lane id="01074-1_0" index="0" allow="rail rail_electric" speed="110.00" length="20.00" shape="8892.53,6233.47 8878.17,6247.39"/>
    </edge>
    <edge id="01074-1-re" from="d9c18bc9-9814-48f2-ab35-d2a280b01074-km-45-gegen" to="d9c18bc9-9814-48f2-ab35-d2a280b01074-km-25-in" priority="-1" spreadType="center" bidi="01074-1">
        <lane id="01074-1-re_0" index="0" allow="rail rail_electric" speed="110.00" length="20.00" shape="8878.17,6247.39 8892.53,6233.47"/>
    </edge>
    <edge id="01074-2" from="d9c18bc9-9814-48f2-ab35-d2a280b01074-km-45-gegen" to="3df23" priority="-1" spreadType="center" shape="8878.17,6247.39 8847.58,6277.01 8814.11,6299.80 8764.72,6323.97 8725.47,6339.30 8682.43,6351.19 8519.24,6384.21 8488.10,6392.42" bidi="01074-2-re">
        <lane id="01074-2_0" index="0" allow="rail rail_electric" speed="110.00" length="423.55" shape="8878.17,6247.39 8847.58,6277.01 8814.11,6299.80 8764.72,6323.97 8725.47,6339.30 8682.43,6351.19 8519.24,6384.21 8488.10,6392.42"/>
    </edge>
    <edge id="01074-2-re" from="3df23" to="d9c18bc9-9814-48f2-ab35-d2a280b01074-km-45-gegen" priority="-1" spreadType="center" shape="8488.10,6392.42 8519.24,6384.21 8682.43,6351.19 8725.47,6339.30 8764.72,6323.97 8814.11,6299.80 8847.58,6277.01 8878.17,6247.39" bidi="01074-2">
        <lane id="01074-2-re_0" index="0" allow="rail rail_electric" speed="110.00" length="423.55" shape="8488.10,6392.42 8519.24,6384.21 8682.43,6351.19 8725.47,6339.30 8764.72,6323.97 8814.11,6299.80 8847.58,6277.01 8878.17,6247.39"/>
    </edge>
    <edge id="02057-0" from="b2430" to="b04c51e4-8c4c-4e01-9ab8-bef025d02057-km-25-in" priority="-1" spreadType="center" bidi="02057-0-re">
        <lane id="02057-0_0" index="0" allow="rail rail_electric" speed="110.00" length="25.00" shape="7096.05,5807.77 7073.12,5817.73"/>
    </edge>
    <edge id="02057-0-re" from="b04c51e4-8c4c-4e01-9ab8-bef025d02057-km-25-in" to="b2430" priority="-1" spreadType="center" bidi="02057-0">
        <lane id="02057-0-re_0" index="0" allow="rail rail_electric" speed="110.00" length="25.00" shape="7073.12,5817.73 7096.05,5807.77"/>
    </edge>
    <edge id="02057-1" from="b04c51e4-8c4c-4e01-9ab8-bef025d02057-km-25-in" to="b04c51e4-8c4c-4e01-9ab8-bef025d02057-km-45-gegen" priority="-1" spreadType="center" bidi="02057-1-re">
        <lane id="02057-1_0" index="0" allow="rail rail_electric" speed="110.00" length="20.00" shape="7073.12,5817.73 7054.78,5825.70"/>
    </edge>
    <edge id="02057-1-re" from="b04c51e4-8c4c-4e01-9ab8-bef025d02057-km-45-gegen" to="b04c51e4-8c4c-4e01-9ab8-bef025d02057-km-25-in" priority="-1" spreadType="center" bidi="02057-1">
        <lane id="02057-1-re_0" index="0" allow="rail rail_electric" speed="110.00" length="20.00" shape="7054.78,5825.70 7073.12,5817.73"/>
    </edge>
    <edge id="02057-2" from="b04c51e4-8c4c-4e01-9ab8-bef025d02057-km-45-gegen" to="b04c51e4-8c4c-4e01-9ab8-bef025d02057-km-646.6173617051438-in" priority="-1" spreadType="center" shape="7054.78,5825.70 6985.16,5855.94 6964.52,5862.82 6940.84,5868.78 6906.48,5876.73 6473.28,5968.55 6471.87,5968.87" bidi="02057-2-re">
        <lane id="02057-2_0" index="0" allow="rail rail_electric" speed="110.00" length="601.62" shape="7054.78,5825.70 6985.16,5855.94 6964.52,5862.82 6940.84,5868.78 6906.48,5876.73 6473.28,5968.55 6471.87,5968.87"/>
    </edge>
    <edge id="02057-2-re" from="b04c51e4-8c4c-4e01-9ab8-bef025d02057-km-646.6173617051438-in" to="b04c51e4-8c4c-4e01-9ab8-bef025d02057-km-45-gegen" priority="-1" spreadType="center" shape="6471.87,5968.87 6473.28,5968.55 6906.48,5876.73 6940.84,5868.78 6964.52,5862.82 6985.16,5855.94 7054.78,5825.70" bidi="02057-2">
        <lane id="02057-2-re_0" index="0" allow="rail rail_electric" speed="110.00" length="601.62" shape="6471.87,5968.87 6473.28,5968.55 6906.48,5876.73 6940.84,5868.78 6964.52,5862.82 6985.16,5855.94 7054.78,5825.70"/>
    </edge>
    <edge id="02057-3" from="b04c51e4-8c4c-4e01-9ab8-bef025d02057-km-646.6173617051438-in" to="b04c51e4-8c4c-4e01-9ab8-bef025d02057-km-666.6173617051438-gegen" priority="-1" spreadType="center" bidi="02057-3-re">
        <lane id="02057-3_0" index="0" allow="rail rail_electric" speed="110.00" length="20.00" shape="6471.87,5968.87 6452.36,5973.30"/>
    </edge>
    <edge id="02057-3-re" from="b04c51e4-8c4c-4e01-9ab8-bef025d02057-km-666.6173617051438-gegen" to="b04c51e4-8c4c-4e01-9ab8-bef025d02057-km-646.6173617051438-in" priority="-1" spreadType="center" bidi="02057-3">
        <lane id="02057-3-re_0" index="0" allow="rail rail_electric" speed="110.00" length="20.00" shape="6452.36,5973.30 6471.87,5968.87"/>
    </edge>
    <edge id="02057-4" from="b04c51e4-8c4c-4e01-9ab8-bef025d02057-km-666.6173617051438-gegen" to="8fe5c" priority="-1" spreadType="center" bidi="02057-4-re">
        <lane id="02057-4_0" index="0" allow="rail rail_electric" speed="110.00" length="25.00" shape="6452.36,5973.30 6427.98,5978.82"/>
    </edge>
    <edge id="02057-4-re" from="8fe5c" to="b04c51e4-8c4c-4e01-9ab8-bef025d02057-km-666.6173617051438-gegen" priority="-1" spreadType="center" bidi="02057-4">
        <lane id="02057-4-re_0" index="0" allow="rail rail_electric" speed="110.00" length="25.00" shape="6427.98,5978.82 6452.36,5973.30"/>
    </edge>
    <edge id="02a72-0" from="14ba1" to="ef381509-3a04-42b5-9b6b-edfcb4102a72-km-25-in" priority="-1" spreadType="center" bidi="02a72-0-re">
        <lane id="02a72-0_0" index="0" allow="rail rail_electric" speed="110.00" length="25.00" shape="6441.94,5806.46 6466.43,5801.45"/>
    </edge>
    <edge id="02a72-0-re" from="ef381509-3a04-42b5-9b6b-edfcb4102a72-km-25-in" to="14ba1" priority="-1" spreadType="center" bidi="02a72-0">
        <lane id="02a72-0-re_0" index="0" allow="rail rail_electric" speed="110.00" length="25.00" shape="6466.43,5801.45 6441.94,5806.46"/>
    </edge>
    <edge id="02a72-1" from="ef381509-3a04-42b5-9b6b-edfcb4102a72-km-25-in" to="ef381509-3a04-42b5-9b6b-edfcb4102a72-km-45-gegen" priority="-1" spreadType="center" bidi="02a72-1-re">
        <lane id="02a72-1_0" index="0" allow="rail rail_electric" speed="110.00" length="20.00" shape="6466.43,5801.45 6486.02,5797.44"/>
    </edge>
    <edge id="02a72-1-re" from="ef381509-3a04-42b5-9b6b-edfcb4102a72-km-45-gegen" to="ef381509-3a04-42b5-9b6b-edfcb4102a72-km-25-in" priority="-1" spreadType="center" bidi="02a72-1">
        <lane id="02a72-1-re_0" index="0" allow="rail rail_electric" speed="110.00" length="20.00" shape="6486.02,5797.44 6466.43,5801.45"/>
    </edge>
    <edge id="02a72-2" from="ef381509-3a04-42b5-9b6b-edfcb4102a72-km-45-gegen" to="ef381509-3a04-42b5-9b6b-edfcb4102a72-km-1067.6639210166686-in" priority="-1" spreadType="center" shape="6486.02,5797.44 6548.01,5784.75 6634.43,5758.53 7025.53,5680.37 7132.08,5669.20 7488.26,5598.60" bidi="02a72-2-re">
        <lane id="02a72-2_0" index="0" allow="rail rail_electric" speed="110.00" length="1022.66" shape="6486.02,5797.44 6548.01,5784.75 6634.43,5758.53 7025.53,5680.37 7132.08,5669.20 7488.26,5598.60"/>
    </edge>
    <edge id="02a72-2-re" from="ef381509-3a04-42b5-9b6b-edfcb4102a72-km-1067.6639210166686-in" to="ef381509-3a04-42b5-9b6b-edfcb4102a72-km-45-gegen" priority="-1" spreadType="center" shape="7488.26,5598.60 7132.08,5669.20 7025.53,5680.37 6634.43,5758.53 6548.01,5784.75 6486.02,5797.44" bidi="02a72-2">
        <lane id="02a72-2-re_0" index="0" allow="rail rail_electric" speed="110.00" length="1022.66" shape="7488.26,5598.60 7132.08,5669.20 7025.53,5680.37 6634.43,5758.53 6548.01,5784.75 6486.02,5797.44"/>
    </edge>
    <edge id="02a72-3" from="ef381509-3a04-42b5-9b6b-edfcb4102a72-km-1067.6639210166686-in" to="ef381509-3a04-42b5-9b6b-edfcb4102a72-km-1087.6639210166686-gegen" priority="-1" spreadType="center" bidi="02a72-3-re">
        <lane id="02a72-3_0" index="0" allow="rail rail_electric" speed="110.00" length="20.00" shape="7488.26,5598.60 7507.88,5594.71"/>
    </edge>
    <edge id="02a72-3-re" from="ef381509-3a04-42b5-9b6b-edfcb4102a72-km-1087.6639210166686-gegen" to="ef381509-3a04-42b5-9b6b-edfcb4102a72-km-1067.6639210166686-in" priority="-1" spreadType="center" bidi="02a72-3">
        <lane id="02a72-3-re_0" index="0" allow="rail rail_electric" speed="110.00" length="20.00" shape="7507.88,5594.71 7488.26,5598.60"/>
    </edge>
    <edge id="02a72-4" from="ef381509-3a04-42b5-9b6b-edfcb4102a72-km-1087.6639210166686-gegen" to="9cb45" priority="-1" spreadType="center" bidi="02a72-4-re">
        <lane id="02a72-4_0" index="0" allow="rail rail_electric" speed="110.00" length="25.00" shape="7507.88,5594.71 7532.41,5589.85"/>
    </edge>
    <edge id="02a72-4-re" from="9cb45" to="ef381509-3a04-42b5-9b6b-edfcb4102a72-km-1087.6639210166686-gegen" priority="-1" spreadType="center" bidi="02a72-4">
        <lane id="02a72-4-re_0" index="0" allow="rail rail_electric" speed="110.00" length="25.00" shape="7532.41,5589.85 7507.88,5594.71"/>
    </edge>
    <edge id="042ed-0" from="36047" to="2166d" priority="-1" spreadType="center" bidi="042ed-0-re">
        <lane id="042ed-0_0" index="0" allow="rail rail_electric" speed="110.00" length="27.26" shape="4462.45,7398.95 4467.90,7425.52"/>
    </edge>
    <edge id="042ed-0-re" from="2166d" to="36047" priority="-1" spreadType="center" bidi="042ed-0">
        <lane id="042ed-0-re_0" index="0" allow="rail rail_electric" speed="110.00" length="27.26" shape="4467.90,7425.52 4462.45,7398.95"/>
    </edge>
    <edge id="04627-0" from="84a4b" to="291efc06-09a1-40ea-b756-e74787004627-km-25-in" priority="-1" spreadType="center" bidi="04627-0-re">
        <lane id="04627-0_0" index="0" allow="rail rail_electric" speed="110.00" length="25.00" shape="7631.45,5582.43 7655.96,5577.52"/>
    </edge>
    <edge id="04627-0-re" from="291efc06-09a1-40ea-b756-e74787004627-km-25-in" to="84a4b" priority="-1" spreadType="center" bidi="04627-0">
        <lane id="04627-0-re_0" index="0" allow="rail rail_electric" speed="110.00" length="25.00" shape="7655.96,5577.52 7631.45,5582.43"/>
    </edge>
    <edge id="04627-1" from="291efc06-09a1-40ea-b756-e74787004627-km-25-in" to="291efc06-09a1-40ea-b756-e74787004627-km-45-gegen" priority="-1" spreadType="center" bidi="04627-1-re">
        <lane id="04627-1_0" index="0" allow="rail rail_electric" speed="110.00" length="20.00" shape="7655.96,5577.52 7675.57,5573.58"/>
    </edge>
    <edge id="04627-1-re" from="291efc06-09a1-40ea-b756-e74787004627-km-45-gegen" to="291efc06-09a1-40ea-b756-e74787004627-km-25-in" priority="-1" spreadType="center" bidi="04627-1">
        <lane id="04627-1-re_0" index="0" allow="rail rail_electric" speed="110.00" length="20.00" shape="7675.57,5573.58 7655.96,5577.52"/>
    </edge>
    <edge id="04627-2" from="291efc06-09a1-40ea-b756-e74787004627-km-45-gegen" to="291efc06-09a1-40ea-b756-e74787004627-km-65.27822989245557-in" priority="-1" spreadType="center" bidi="04627-2-re">
        <lane id="04627-2_0" index="0" allow="rail rail_electric" speed="110.00" length="20.28" shape="7675.57,5573.58 7695.45,5569.59"/>
    </edge>
    <edge id="04627-2-re" from="291efc06-09a1-40ea-b756-e74787004627-km-65.27822989245557-in" to="291efc06-09a1-40ea-b756-e74787004627-km-45-gegen" priority="-1" spreadType="center" bidi="04627-2">
        <lane id="04627-2-re_0" index="0" allow="rail rail_electric" speed="110.00" length="20.28" shape="7695.45,5569.59 7675.57,5573.58"/>
    </edge>
    <edge id="04627-3" from="291efc06-09a1-40ea-b756-e74787004627-km-65.27822989245557-in" to="291efc06-09a1-40ea-b756-e74787004627-km-85.27822989245557-gegen" priority="-1" spreadType="center" bidi="04627-3-re">
        <lane id="04627-3_0" index="0" allow="rail rail_electric" speed="110.00" length="20.00" shape="7695.45,5569.59 7715.06,5565.66"/>
    </edge>
    <edge id="04627-3-re" from="291efc06-09a1-40ea-b756-e74787004627-km-85.27822989245557-gegen" to="291efc06-09a1-40ea-b756-e74787004627-km-65.27822989245557-in" priority="-1" spreadType="center" bidi="04627-3">
        <lane id="04627-3-re_0" index="0" allow="rail rail_electric" speed="110.00" length="20.00" shape="7715.06,5565.66 7695.45,5569.59"/>
    </edge>
    <edge id="04627-4" from="291efc06-09a1-40ea-b756-e74787004627-km-85.27822989245557-gegen" to="564fa" priority="-1" spreadType="center" bidi="04627-4-re">
        <lane id="04627-4_0" index="0" allow="rail rail_electric" speed="110.00" length="25.00" shape="7715.06,5565.66 7739.57,5560.74"/>
    </edge>
    <edge id="04627-4-re" from="564fa" to="291efc06-09a1-40ea-b756-e74787004627-km-85.27822989245557-gegen" priority="-1" spreadType="center" bidi="04627-4">
        <lane id="04627-4-re_0" index="0" allow="rail rail_electric" speed="110.00" length="25.00" shape="7739.57,5560.74 7715.06,5565.66"/>
    </edge>
    <edge id="046fa-0" from="5b4ee" to="cfc00" priority="-1" spreadType="center" bidi="046fa-0-re">
        <lane id="046fa-0_0" index="0" allow="rail rail_electric" speed="110.00" length="67.51" shape="6383.08,7275.55 6449.29,7262.33"/>
    </edge>
    <edge id="046fa-0-re" from="cfc00" to="5b4ee" priority="-1" spreadType="center" bidi="046fa-0">
        <lane id="046fa-0-re_0" index="0" allow="rail rail_electric" speed="110.00" length="67.51" shape="6449.29,7262.33 6383.08,7275.55"/>
    </edge>
    <edge id="04b2f-0" from="68f25" to="d2d95" priority="-1" spreadType="center" bidi="04b2f-0-re">
        <lane id="04b2f-0_0" index="0" allow="rail rail_electric" speed="110.00" length="82.34" shape="6954.54,6132.17 6872.35,6137.12"/>
    </edge>
    <edge id="04b2f-0-re" from="d2d95" to="68f25" priority="-1" spreadType="center" bidi="04b2f-0">
        <lane id="04b2f-0-re_0" index="0" allow="rail rail_electric" speed="110.00" length="82.34" shape="6872.35,6137.12 6954.54,6132.17"/>
    </edge>
    <edge id="04ea3-0" from="cc0c2" to="9b1ccfcb-b904-4cf8-b898-8d8d0d304ea3-km-25-in" priority="-1" spreadType="center" bidi="04ea3-0-re">
        <lane id="04ea3-0_0" index="0" allow="rail rail_electric" speed="110.00" length="25.00" shape="10418.11,3834.10 10406.03,3855.87"/>
    </edge>
    <edge id="04ea3-0-re" from="9b1ccfcb-b904-4cf8-b898-8d8d0d304ea3-km-25-in" to="cc0c2" priority="-1" spreadType="center" bidi="04ea3-0">
        <lane id="04ea3-0-re_0" index="0" allow="rail rail_electric" speed="110.00" length="25.00" shape="10406.03,3855.87 10418.11,3834.10"/>
    </edge>
    <edge id="04ea3-1" from="9b1ccfcb-b904-4cf8-b898-8d8d0d304ea3-km-25-in" to="9b1ccfcb-b904-4cf8-b898-8d8d0d304ea3-km-45-gegen" priority="-1" spreadType="center" bidi="04ea3-1-re">
        <lane id="04ea3-1_0" index="0" allow="rail rail_electric" speed="110.00" length="20.00" shape="10406.03,3855.87 10396.32,3873.36"/>
    </edge>
    <edge id="04ea3-1-re" from="9b1ccfcb-b904-4cf8-b898-8d8d0d304ea3-km-45-gegen" to="9b1ccfcb-b904-4cf8-b898-8d8d0d304ea3-km-25-in" priority="-1" spreadType="center" bidi="04ea3-1">
        <lane id="04ea3-1-re_0" index="0" allow="rail rail_electric" speed="110.00" length="20.00" shape="10396.32,3873.36 10406.03,3855.87"/>
    </edge>
    <edge id="04ea3-2" from="9b1ccfcb-b904-4cf8-b898-8d8d0d304ea3-km-45-gegen" to="9b1ccfcb-b904-4cf8-b898-8d8d0d304ea3-km-763.4271839438517-in" priority="-1" spreadType="center" shape="10396.32,3873.36 10080.16,4442.95 10073.06,4461.20 10062.02,4497.76 10060.34,4506.80" bidi="04ea3-2-re">
        <lane id="04ea3-2_0" index="0" allow="rail rail_electric" speed="110.00" length="718.43" shape="10396.32,3873.36 10080.16,4442.95 10073.06,4461.20 10062.02,4497.76 10060.34,4506.80"/>
    </edge>
    <edge id="04ea3-2-re" from="9b1ccfcb-b904-4cf8-b898-8d8d0d304ea3-km-763.4271839438517-in" to="9b1ccfcb-b904-4cf8-b898-8d8d0d304ea3-km-45-gegen" priority="-1" spreadType="center" shape="10060.34,4506.80 10062.02,4497.76 10073.06,4461.20 10080.16,4442.95 10396.32,3873.36" bidi="04ea3-2">
        <lane id="04ea3-2-re_0" index="0" allow="rail rail_electric" speed="110.00" length="718.43" shape="10060.34,4506.80 10062.02,4497.76 10073.06,4461.20 10080.16,4442.95 10396.32,3873.36"/>
    </edge>
    <edge id="04ea3-3" from="9b1ccfcb-b904-4cf8-b898-8d8d0d304ea3-km-763.4271839438517-in" to="9b1ccfcb-b904-4cf8-b898-8d8d0d304ea3-km-783.4271839438517-gegen" priority="-1" spreadType="center" bidi="04ea3-3-re">
        <lane id="04ea3-3_0" index="0" allow="rail rail_electric" speed="110.00" length="20.00" shape="10060.34,4506.80 10056.70,4526.47"/>
    </edge>
    <edge id="04ea3-3-re" from="9b1ccfcb-b904-4cf8-b898-8d8d0d304ea3-km-783.4271839438517-gegen" to="9b1ccfcb-b904-4cf8-b898-8d8d0d304ea3-km-763.4271839438517-in" priority="-1" spreadType="center" bidi="04ea3-3">
        <lane id="04ea3-3-re_0" index="0" allow="rail rail_electric" speed="110.00" length="20.00" shape="10056.70,4526.47 10060.34,4506.80"/>
    </edge>
    <edge id="04ea3-4" from="9b1ccfcb-b904-4cf8-b898-8d8d0d304ea3-km-783.4271839438517-gegen" to="b243c" priority="-1" spreadType="center" bidi="04ea3-4-re">
        <lane id="04ea3-4_0" index="0" allow="rail rail_electric" speed="110.00" length="25.00" shape="10056.70,4526.47 10052.16,4550.93"/>
    </edge>
    <edge id="04ea3-4-re" from="b243c" to="9b1ccfcb-b904-4cf8-b898-8d8d0d304ea3-km-783.4271839438517-gegen" priority="-1" spreadType="center" bidi="04ea3-4">
        <lane id="04ea3-4-re_0" index="0" allow="rail rail_electric" speed="110.00" length="25.00" shape="10052.16,4550.93 10056.70,4526.47"/>
    </edge>
    <edge id="05327-0" from="d2c8d" to="fc23c450-a1db-4345-8553-ea5e8a505327-km-25-in" priority="-1" spreadType="center" bidi="05327-0-re">
        <lane id="05327-0_0" index="0" allow="rail rail_electric" speed="110.00" length="25.00" shape="7372.86,7963.04 7348.67,7969.34"/>
    </edge>
    <edge id="05327-0-re" from="fc23c450-a1db-4345-8553-ea5e8a505327-km-25-in" to="d2c8d" priority="-1" spreadType="center" bidi="05327-0">
        <lane id="05327-0-re_0" index="0" allow="rail rail_electric" speed="110.00" length="25.00" shape="7348.67,7969.34 7372.86,7963.04"/>
    </edge>
    <edge id="05327-1" from="fc23c450-a1db-4345-8553-ea5e8a505327-km-25-in" to="fc23c450-a1db-4345-8553-ea5e8a505327-km-45-gegen" priority="-1" spreadType="center" bidi="05327-1-re">
        <lane id="05327-1_0" index="0" allow="rail rail_electric" speed="110.00" length="20.00" shape="7348.67,7969.34 7329.31,7974.38"/>
    </edge>
    <edge id="05327-1-re" from="fc23c450-a1db-4345-8553-ea5e8a505327-km-45-gegen" to="fc23c450-a1db-4345-8553-ea5e8a505327-km-25-in" priority="-1" spreadType="center" bidi="05327-1">
        <lane id="05327-1-re_0" index="0" allow="rail rail_electric" speed="110.00" length="20.00" shape="7329.31,7974.38 7348.67,7969.34"/>
    </edge>
    <edge id="05327-2" from="fc23c450-a1db-4345-8553-ea5e8a505327-km-45-gegen" to="3d72b" priority="-1" spreadType="center" shape="7329.31,7974.38 7300.60,7981.85 7258.88,7995.75 7231.99,8006.25 7218.40,8012.14 7182.68,8030.09 7129.06,8060.63 7067.34,8094.30" bidi="05327-2-re">
        <lane id="05327-2_0" index="0" allow="rail rail_electric" speed="110.00" length="289.31" shape="7329.31,7974.38 7300.60,7981.85 7258.88,7995.75 7231.99,8006.25 7218.40,8012.14 7182.68,8030.09 7129.06,8060.63 7067.34,8094.30"/>
    </edge>
    <edge id="05327-2-re" from="3d72b" to="fc23c450-a1db-4345-8553-ea5e8a505327-km-45-gegen" priority="-1" spreadType="center" shape="7067.34,8094.30 7129.06,8060.63 7182.68,8030.09 7218.40,8012.14 7231.99,8006.25 7258.88,7995.75 7300.60,7981.85 7329.31,7974.38" bidi="05327-2">
        <lane id="05327-2-re_0" index="0" allow="rail rail_electric" speed="110.00" length="289.31" shape="7067.34,8094.30 7129.06,8060.63 7182.68,8030.09 7218.40,8012.14 7231.99,8006.25 7258.88,7995.75 7300.60,7981.85 7329.31,7974.38"/>
    </edge>
    <edge id="058cf-0" from="81f64" to="ef3019e7-a6cb-477f-843c-122d3e2058cf-km-25-in" priority="-1" spreadType="center" bidi="058cf-0-re">
        <lane id="058cf-0_0" index="0" allow="rail rail_electric" speed="110.00" length="25.00" shape="9099.16,6799.18 9100.81,6774.35"/>
    </edge>
    <edge id="058cf-0-re" from="ef3019e7-a6cb-477f-843c-122d3e2058cf-km-25-in" to="81f64" priority="-1" spreadType="center" bidi="058cf-0">
        <lane id="058cf-0-re_0" index="0" allow="rail rail_electric" speed="110.00" length="25.00" shape="9100.81,6774.35 9099.16,6799.18"/>
    </edge>
    <edge id="058cf-1" from="ef3019e7-a6cb-477f-843c-122d3e2058cf-km-25-in" to="ef3019e7-a6cb-477f-843c-122d3e2058cf-km-45-gegen" priority="-1" spreadType="center" bidi="058cf-1-re">
        <lane id="058cf-1_0" index="0" allow="rail rail_electric" speed="110.00" length="20.00" shape="9100.81,6774.35 9102.13,6754.40"/>
    </edge>
    <edge id="058cf-1-re" from="ef3019e7-a6cb-477f-843c-122d3e2058cf-km-45-gegen" to="ef3019e7-a6cb-477f-843c-122d3e2058cf-km-25-in" priority="-1" spreadType="center" bidi="058cf-1">
        <lane id="058cf-1-re_0" index="0" allow="rail rail_electric" speed="110.00" length="20.00" shape="9102.13,6754.40 9100.81,6774.35"/>
    </edge>
    <edge id="058cf-2" from="ef3019e7-a6cb-477f-843c-122d3e2058cf-km-45-gegen" to="ef3019e7-a6cb-477f-843c-122d3e2058cf-km-161.82554428269663-in" priority="-1" spreadType="center" bidi="058cf-2-re">
        <lane id="058cf-2_0" index="0" allow="rail rail_electric" speed="110.00" length="116.83" shape="9102.13,6754.40 9109.88,6637.83"/>
    </edge>
    <edge id="058cf-2-re" from="ef3019e7-a6cb-477f-843c-122d3e2058cf-km-161.82554428269663-in" to="ef3019e7-a6cb-477f-843c-122d3e2058cf-km-45-gegen" priority="-1" spreadType="center" bidi="058cf-2">
        <lane id="058cf-2-re_0" index="0" allow="rail rail_electric" speed="110.00" length="116.83" shape="9109.88,6637.83 9102.13,6754.40"/>
    </edge>
    <edge id="058cf-3" from="ef3019e7-a6cb-477f-843c-122d3e2058cf-km-161.82554428269663-in" to="ef3019e7-a6cb-477f-843c-122d3e2058cf-km-181.82554428269663-gegen" priority="-1" spreadType="center" bidi="058cf-3-re">
        <lane id="058cf-3_0" index="0" allow="rail rail_electric" speed="110.00" length="20.00" shape="9109.88,6637.83 9111.21,6617.87"/>
    </edge>
    <edge id="058cf-3-re" from="ef3019e7-a6cb-477f-843c-122d3e2058cf-km-181.82554428269663-gegen" to="ef3019e7-a6cb-477f-843c-122d3e2058cf-km-161.82554428269663-in" priority="-1" spreadType="center" bidi="058cf-3">
        <lane id="058cf-3-re_0" index="0" allow="rail rail_electric" speed="110.00" length="20.00" shape="9111.21,6617.87 9109.88,6637.83"/>
    </edge>
    <edge id="058cf-4" from="ef3019e7-a6cb-477f-843c-122d3e2058cf-km-181.82554428269663-gegen" to="23146" priority="-1" spreadType="center" bidi="058cf-4-re">
        <lane id="058cf-4_0" index="0" allow="rail rail_electric" speed="110.00" length="25.00" shape="9111.21,6617.87 9112.86,6593.04"/>
    </edge>
    <edge id="058cf-4-re" from="23146" to="ef3019e7-a6cb-477f-843c-122d3e2058cf-km-181.82554428269663-gegen" priority="-1" spreadType="center" bidi="058cf-4">
        <lane id="058cf-4-re_0" index="0" allow="rail rail_electric" speed="110.00" length="25.00" shape="9112.86,6593.04 9111.21,6617.87"/>
    </edge>
    <edge id="05a7b-0" from="3c339" to="f1e400be-c10f-4069-9096-f6b03f905a7b-km-25-in" priority="-1" spreadType="center" bidi="05a7b-0-re">
        <lane id="05a7b-0_0" index="0" allow="rail rail_electric" speed="110.00" length="25.00" shape="10601.69,3584.14 10613.80,3562.26"/>
    </edge>
    <edge id="05a7b-0-re" from="f1e400be-c10f-4069-9096-f6b03f905a7b-km-25-in" to="3c339" priority="-1" spreadType="center" bidi="05a7b-0">
        <lane id="05a7b-0-re_0" index="0" allow="rail rail_electric" speed="110.00" length="25.00" shape="10613.80,3562.26 10601.69,3584.14"/>
    </edge>
    <edge id="05a7b-1" from="f1e400be-c10f-4069-9096-f6b03f905a7b-km-25-in" to="f1e400be-c10f-4069-9096-f6b03f905a7b-km-45-gegen" priority="-1" spreadType="center" bidi="05a7b-1-re">
        <lane id="05a7b-1_0" index="0" allow="rail rail_electric" speed="110.00" length="20.00" shape="10613.80,3562.26 10623.48,3544.76"/>
    </edge>
    <edge id="05a7b-1-re" from="f1e400be-c10f-4069-9096-f6b03f905a7b-km-45-gegen" to="f1e400be-c10f-4069-9096-f6b03f905a7b-km-25-in" priority="-1" spreadType="center" bidi="05a7b-1">
        <lane id="05a7b-1-re_0" index="0" allow="rail rail_electric" speed="110.00" length="20.00" shape="10623.48,3544.76 10613.80,3562.26"/>
    </edge>
    <edge id="05a7b-2" from="f1e400be-c10f-4069-9096-f6b03f905a7b-km-45-gegen" to="f1e400be-c10f-4069-9096-f6b03f905a7b-km-80.611535395953-in" priority="-1" spreadType="center" bidi="05a7b-2-re">
        <lane id="05a7b-2_0" index="0" allow="rail rail_electric" speed="110.00" length="35.61" shape="10623.48,3544.76 10640.71,3513.60"/>
    </edge>
    <edge id="05a7b-2-re" from="f1e400be-c10f-4069-9096-f6b03f905a7b-km-80.611535395953-in" to="f1e400be-c10f-4069-9096-f6b03f905a7b-km-45-gegen" priority="-1" spreadType="center" bidi="05a7b-2">
        <lane id="05a7b-2-re_0" index="0" allow="rail rail_electric" speed="110.00" length="35.61" shape="10640.71,3513.60 10623.48,3544.76"/>
    </edge>
    <edge id="05a7b-3" from="f1e400be-c10f-4069-9096-f6b03f905a7b-km-80.611535395953-in" to="f1e400be-c10f-4069-9096-f6b03f905a7b-km-100.611535395953-gegen" priority="-1" spreadType="center" bidi="05a7b-3-re">
        <lane id="05a7b-3_0" index="0" allow="rail rail_electric" speed="110.00" length="20.00" shape="10640.71,3513.60 10650.39,3496.10"/>
    </edge>
    <edge id="05a7b-3-re" from="f1e400be-c10f-4069-9096-f6b03f905a7b-km-100.611535395953-gegen" to="f1e400be-c10f-4069-9096-f6b03f905a7b-km-80.611535395953-in" priority="-1" spreadType="center" bidi="05a7b-3">
        <lane id="05a7b-3-re_0" index="0" allow="rail rail_electric" speed="110.00" length="20.00" shape="10650.39,3496.10 10640.71,3513.60"/>
    </edge>
    <edge id="05a7b-4" from="f1e400be-c10f-4069-9096-f6b03f905a7b-km-100.611535395953-gegen" to="f04a5" priority="-1" spreadType="center" bidi="05a7b-4-re">
        <lane id="05a7b-4_0" index="0" allow="rail rail_electric" speed="110.00" length="25.00" shape="10650.39,3496.10 10662.49,3474.22"/>
    </edge>
    <edge id="05a7b-4-re" from="f04a5" to="f1e400be-c10f-4069-9096-f6b03f905a7b-km-100.611535395953-gegen" priority="-1" spreadType="center" bidi="05a7b-4">
        <lane id="05a7b-4-re_0" index="0" allow="rail rail_electric" speed="110.00" length="25.00" shape="10662.49,3474.22 10650.39,3496.10"/>
    </edge>
    <edge id="06b19-0" from="2c3c3" to="491b3" priority="-1" spreadType="center" bidi="06b19-0-re">
        <lane id="06b19-0_0" index="0" allow="rail rail_electric" speed="110.00" length="43.58" shape="8569.47,5301.28 8612.74,5306.49"/>
    </edge>
    <edge id="06b19-0-re" from="491b3" to="2c3c3" priority="-1" spreadType="center" bidi="06b19-0">
        <lane id="06b19-0-re_0" index="0" allow="rail rail_electric" speed="110.00" length="43.58" shape="8612.74,5306.49 8569.47,5301.28"/>
    </edge>