<connections>
<!-- Point 92a2f 50df8a61-985d-4c6a-9533-bb0a9b792a2f -->
<connection from="1322f-0" to="8cedf-0"/>
<connection from="1322f-0" to="8cedf-0-re"/>
<connection from="1322f-0-re" to="8cedf-0"/>
<connection from="1322f-0-re" to="8cedf-0-re"/>
<connection from="05fe3-0" to="8cedf-0"/>
<connection from="05fe3-0" to="8cedf-0-re"/>
<connection from="05fe3-0-re" to="8cedf-0"/>
<connection from="05fe3-0-re" to="8cedf-0-re"/>
<connection from="8cedf-0" to="1322f-0"/>
<connection from="8cedf-0" to="05fe3-0"/>
<connection from="8cedf-0" to="1322f-0-re"/>
<connection from="8cedf-0" to="05fe3-0-re"/>
<connection from="8cedf-0-re" to="1322f-0"/>
<connection from="8cedf-0-re" to="05fe3-0"/>
<connection from="8cedf-0-re" to="1322f-0-re"/>
<connection from="8cedf-0-re" to="05fe3-0-re"/>
<!-- Point fb5fc cb71860c-1283-4b77-829e-6bd7946fb5fc -->
<connection from="30da4-0" to="05fe3-4"/>
<connection from="30da4-0" to="05fe3-4-re"/>
<connection from="30da4-0-re" to="05fe3-4"/>
<connection from="30da4-0-re" to="05fe3-4-re"/>
<connection from="b3306-0" to="05fe3-4"/>
<connection from="b3306-0" to="05fe3-4-re"/>
<connection from="b3306-0-re" to="05fe3-4"/>
<connection from="b3306-0-re" to="05fe3-4-re"/>
<connection from="05fe3-4" to="30da4-0"/>
<connection from="05fe3-4" to="b3306-0"/>
<connection from="05fe3-4" to="30da4-0-re"/>
<connection from="05fe3-4" to="b3306-0-re"/>
<connection from="05fe3-4-re" to="30da4-0"/>
<connection from="05fe3-4-re" to="b3306-0"/>
<connection from="05fe3-4-re" to="30da4-0-re"/>
<connection from="05fe3-4-re" to="b3306-0-re"/>
<!-- Point fe862 192dbe27-de19-4cc8-b63d-f8ef4cafe862 -->
<connection from="72526-0" to="f3331-0"/>
<connection from="72526-0" to="f3331-0-re"/>
<connection from="72526-0-re" to="f3331-0"/>
<connection from="72526-0-re" to="f3331-0-re"/>
<connection from="30da4-4" to="f3331-0"/>
<connection from="30da4-4" to="f3331-0-re"/>
<connection from="30da4-4-re" to="f3331-0"/>
<connection from="30da4-4-re" to="f3331-0-re"/>
<connection from="f3331-0" to="72526-0"/>
<connection from="f3331-0" to="30da4-4"/>
<connection from="f3331-0" to="72526-0-re"/>
<connection from="f3331-0" to="30da4-4-re"/>
<connection from="f3331-0-re" to="72526-0"/>
<connection from="f3331-0-re" to="30da4-4"/>
<connection from="f3331-0-re" to="72526-0-re"/>
<connection from="f3331-0-re" to="30da4-4-re"/>
<!-- Point b2c53 4a800587-905f-494b-bdf2-bc01727b2c53 -->
<connection from="f3331-4" to="dff27-0"/>
<connection from="f3331-4" to="dff27-0-re"/>
<connection from="f3331-4-re" to="dff27-0"/>
<connection from="f3331-4-re" to="dff27-0-re"/>
<connection from="ac097-0" to="dff27-0"/>
<connection from="ac097-0" to="dff27-0-re"/>
<connection from="ac097-0-re" to="dff27-0"/>
<connection from="ac097-0-re" to="dff27-0-re"/>
<connection from="dff27-0" to="f3331-4"/>
<connection from="dff27-0" to="ac097-0"/>
<connection from="dff27-0" to="f3331-4-re"/>
<connection from="dff27-0" to="ac097-0-re"/>
<connection from="dff27-0-re" to="f3331-4"/>
<connection from="dff27-0-re" to="ac097-0"/>
<connection from="dff27-0-re" to="f3331-4-re"/>
<connection from="dff27-0-re" to="ac097-0-re"/>
<!-- Point 6e8be 358c7fe5-48d5-4851-91c7-7466e236e8be -->
<connection from="5b7ed-0" to="152bb-0"/>
<connection from="5b7ed-0" to="152bb-0-re"/>
<connection from="5b7ed-0-re" to="152bb-0"/>
<connection from="5b7ed-0-re" to="152bb-0-re"/>
<connection from="d15d0-0" to="152bb-0"/>
<connection from="d15d0-0" to="152bb-0-re"/>
<connection from="d15d0-0-re" to="152bb-0"/>
<connection from="d15d0-0-re" to="152bb-0-re"/>
<connection from="152bb-0" to="5b7ed-0"/>
<connection from="152bb-0" to="d15d0-0"/>
<connection from="152bb-0" to="5b7ed-0-re"/>
<connection from="152bb-0" to="d15d0-0-re"/>
<connection from="152bb-0-re" to="5b7ed-0"/>
<connection from="152bb-0-re" to="d15d0-0"/>
<connection from="152bb-0-re" to="5b7ed-0-re"/>
<connection from="152bb-0-re" to="d15d0-0-re"/>
<!-- Point 3f78b 58040fd4-9ff0-4420-b32e-68bca413f78b -->
<connection from="67cb9-0" to="102bb-0"/>
<connection from="67cb9-0" to="102bb-0-re"/>
<connection from="67cb9-0-re" to="102bb-0"/>
<connection from="67cb9-0-re" to="102bb-0-re"/>
<connection from="d15d0-4" to="102bb-0"/>
<connection from="d15d0-4" to="102bb-0-re"/>
<connection from="d15d0-4-re" to="102bb-0"/>
<connection from="d15d0-4-re" to="102bb-0-re"/>
<connection from="102bb-0" to="67cb9-0"/>
<connection from="102bb-0" to="d15d0-4"/>
<connection from="102bb-0" to="67cb9-0-re"/>
<connection from="102bb-0" to="d15d0-4-re"/>
<connection from="102bb-0-re" to="67cb9-0"/>
<connection from="102bb-0-re" to="d15d0-4"/>
<connection from="102bb-0-re" to="67cb9-0-re"/>
<connection from="102bb-0-re" to="d15d0-4-re"/>
<!-- Point dd2f3 f47c0c83-9ad0-4aa4-8542-e8fc503dd2f3 -->
<connection from="2b403-0" to="9e602-0"/>
<connection from="2b403-0" to="9e602-0-re"/>
<connection from="2b403-0-re" to="9e602-0"/>
<connection from="2b403-0-re" to="9e602-0-re"/>
<connection from="7faec-0" to="9e602-0"/>
<connection from="7faec-0" to="9e602-0-re"/>
<connection from="7faec-0-re" to="9e602-0"/>
<connection from="7faec-0-re" to="9e602-0-re"/>
<connection from="9e602-0" to="2b403-0"/>
<connection from="9e602-0" to="7faec-0"/>
<connection from="9e602-0" to="2b403-0-re"/>
<connection from="9e602-0" to="7faec-0-re"/>
<connection from="9e602-0-re" to="2b403-0"/>
<connection from="9e602-0-re" to="7faec-0"/>
<connection from="9e602-0-re" to="2b403-0-re"/>
<connection from="9e602-0-re" to="7faec-0-re"/>
<!-- Point 95557 98c44543-d974-4606-80c1-0a8b2c995557 -->
<connection from="49514-0" to="3d5c3-0"/>
<connection from="49514-0" to="3d5c3-0-re"/>
<connection from="49514-0-re" to="3d5c3-0"/>
<connection from="49514-0-re" to="3d5c3-0-re"/>
<connection from="131b0-0" to="3d5c3-0"/>
<connection from="131b0-0" to="3d5c3-0-re"/>
<connection from="131b0-0-re" to="3d5c3-0"/>
<connection from="131b0-0-re" to="3d5c3-0-re"/>
<connection from="3d5c3-0" to="49514-0"/>
<connection from="3d5c3-0" to="131b0-0"/>
<connection from="3d5c3-0" to="49514-0-re"/>
<connection from="3d5c3-0" to="131b0-0-re"/>
<connection from="3d5c3-0-re" to="49514-0"/>
<connection from="3d5c3-0-re" to="131b0-0"/>
<connection from="3d5c3-0-re" to="49514-0-re"/>
<connection from="3d5c3-0-re" to="131b0-0-re"/>
<!-- Point 8c1b4 6e46e1d3-b68e-47b3-aa59-3af08b48c1b4 -->
<connection from="79c62-0" to="131b0-0"/>
<connection from="79c62-0" to="131b0-0-re"/>
<connection from="79c62-0-re" to="131b0-0"/>
<connection from="79c62-0-re" to="131b0-0-re"/>
<connection from="41fac-0" to="131b0-0"/>
<connection from="41fac-0" to="131b0-0-re"/>
<connection from="41fac-0-re" to="131b0-0"/>
<connection from="41fac-0-re" to="131b0-0-re"/>
<connection from="131b0-0" to="79c62-0"/>
<connection from="131b0-0" to="41fac-0"/>
<connection from="131b0-0" to="79c62-0-re"/>
<connection from="131b0-0" to="41fac-0-re"/>
<connection from="131b0-0-re" to="79c62-0"/>
<connection from="131b0-0-re" to="41fac-0"/>
<connection from="131b0-0-re" to="79c62-0-re"/>
<connection from="131b0-0-re" to="41fac-0-re"/>
<!-- Point d74fb 3b7a1b16-cea7-4ad1-b39c-e23bb45d74fb -->
<connection from="8362a-0" to="6d1e8-0"/>
<connection from="8362a-0" to="6d1e8-0-re"/>
<connection from="8362a-0-re" to="6d1e8-0"/>
<connection from="8362a-0-re" to="6d1e8-0-re"/>
<connection from="41fac-4" to="6d1e8-0"/>
<connection from="41fac-4" to="6d1e8-0-re"/>
<connection from="41fac-4-re" to="6d1e8-0"/>
<connection from="41fac-4-re" to="6d1e8-0-re"/>
<connection from="6d1e8-0" to="8362a-0"/>
<connection from="6d1e8-0" to="41fac-4"/>
<connection from="6d1e8-0" to="8362a-0-re"/>
<connection from="6d1e8-0" to="41fac-4-re"/>
<connection from="6d1e8-0-re" to="8362a-0"/>
<connection from="6d1e8-0-re" to="41fac-4"/>
<connection from="6d1e8-0-re" to="8362a-0-re"/>
<connection from="6d1e8-0-re" to="41fac-4-re"/>
<!-- Point 064c8 301a2113-faa9-4435-9366-c69c5ec064c8 -->
<connection from="6d1e8-0" to="dbb31-0"/>
<connection from="6d1e8-0" to="dbb31-0-re"/>
<connection from="6d1e8-0-re" to="dbb31-0"/>
<connection from="6d1e8-0-re" to="dbb31-0-re"/>
<connection from="37ede-0" to="dbb31-0"/>
<connection from="37ede-0" to="dbb31-0-re"/>
<connection from="37ede-0-re" to="dbb31-0"/>
<connection from="37ede-0-re" to="dbb31-0-re"/>
<connection from="dbb31-0" to="6d1e8-0"/>
<connection from="dbb31-0" to="37ede-0"/>
<connection from="dbb31-0" to="6d1e8-0-re"/>
<connection from="dbb31-0" to="37ede-0-re"/>
<connection from="dbb31-0-re" to="6d1e8-0"/>
<connection from="dbb31-0-re" to="37ede-0"/>
<connection from="dbb31-0-re" to="6d1e8-0-re"/>
<connection from="dbb31-0-re" to="37ede-0-re"/>
<!-- Point 0acd5 32b53ec7-4657-4227-a0df-69a19b40acd5 -->
<connection from="dbb31-0" to="2c693-0"/>
<connection from="dbb31-0" to="2c693-0-re"/>
<connection from="dbb31-0-re" to="2c693-0"/>
<connection from="dbb31-0-re" to="2c693-0-re"/>
<connection from="2b7ad-0" to="2c693-0"/>
<connection from="2b7ad-0" to="2c693-0-re"/>
<connection from="2b7ad-0-re" to="2c693-0"/>
<connection from="2b7ad-0-re" to="2c693-0-re"/>
<connection from="2c693-0" to="dbb31-0"/>
<connection from="2c693-0" to="2b7ad-0"/>
<connection from="2c693-0" to="dbb31-0-re"/>
<connection from="2c693-0" to="2b7ad-0-re"/>
<connection from="2c693-0-re" to="dbb31-0"/>
<connection from="2c693-0-re" to="2b7ad-0"/>
<connection from="2c693-0-re" to="dbb31-0-re"/>
<connection from="2c693-0-re" to="2b7ad-0-re"/>
<!-- Point 30f85 153946ce-9683-4ea2-b174-b725e0830f85 -->
<connection from="d181b-0" to="2c693-4"/>
<connection from="d181b-0" to="2c693-4-re"/>
<connection from="d181b-0-re" to="2c693-4"/>
<connection from="d181b-0-re" to="2c693-4-re"/>
<connection from="aa4f9-0" to="2c693-4"/>
<connection from="aa4f9-0" to="2c693-4-re"/>
<connection from="aa4f9-0-re" to="2c693-4"/>
<connection from="aa4f9-0-re" to="2c693-4-re"/>
<connection from="2c693-4" to="d181b-0"/>
<connection from="2c693-4" to="aa4f9-0"/>
<connection from="2c693-4" to="d181b-0-re"/>
<connection from="2c693-4" to="aa4f9-0-re"/>
<connection from="2c693-4-re" to="d181b-0"/>
<connection from="2c693-4-re" to="aa4f9-0"/>
<connection from="2c693-4-re" to="d181b-0-re"/>
<connection from="2c693-4-re" to="aa4f9-0-re"/>
<!-- Point fb022 9a334a6b-819f-47e5-b27a-df2f3d4fb022 -->
<connection from="c9224-0" to="1f830-0"/>
<connection from="c9224-0" to="1f830-0-re"/>
<connection from="c9224-0-re" to="1f830-0"/>
<connection from="c9224-0-re" to="1f830-0-re"/>
<connection from="aa4f9-4" to="1f830-0"/>
<connection from="aa4f9-4" to="1f830-0-re"/>
<connection from="aa4f9-4-re" to="1f830-0"/>
<connection from="aa4f9-4-re" to="1f830-0-re"/>
<connection from="1f830-0" to="c9224-0"/>
<connection from="1f830-0" to="aa4f9-4"/>
<connection from="1f830-0" to="c9224-0-re"/>
<connection from="1f830-0" to="aa4f9-4-re"/>
<connection from="1f830-0-re" to="c9224-0"/>
<connection from="1f830-0-re" to="aa4f9-4"/>
<connection from="1f830-0-re" to="c9224-0-re"/>
<connection from="1f830-0-re" to="aa4f9-4-re"/>

<!-- Point 16414 301b7036-96f6-48e6-b816-48f3ae316414 -->
<connection from="be7aa-0" to="41771-0"/>
<connection from="be7aa-0" to="41771-0-re"/>
<connection from="be7aa-0-re" to="41771-0"/>
<connection from="be7aa-0-re" to="41771-0-re"/>
<connection from="8c456-0" to="41771-0"/>
<connection from="8c456-0" to="41771-0-re"/>
<connection from="8c456-0-re" to="41771-0"/>
<connection from="8c456-0-re" to="41771-0-re"/>
<connection from="41771-0" to="be7aa-0"/>
<connection from="41771-0" to="8c456-0"/>
<connection from="41771-0" to="be7aa-0-re"/>
<connection from="41771-0" to="8c456-0-re"/>
<connection from="41771-0-re" to="be7aa-0"/>
<connection from="41771-0-re" to="8c456-0"/>
<connection from="41771-0-re" to="be7aa-0-re"/>
<connection from="41771-0-re" to="8c456-0-re"/>
<!-- Point e3198 69ac4b75-f1d2-4f47-b392-4c57d3de3198 -->
<connection from="be7aa-4" to="e367d-0"/>
<connection from="be7aa-4" to="e367d-0-re"/>
<connection from="be7aa-4-re" to="e367d-0"/>
<connection from="be7aa-4-re" to="e367d-0-re"/>
<connection from="b17e9-0" to="e367d-0"/>
<connection from="b17e9-0" to="e367d-0-re"/>
<connection from="b17e9-0-re" to="e367d-0"/>
<connection from="b17e9-0-re" to="e367d-0-re"/>
<connection from="e367d-0" to="be7aa-4"/>
<connection from="e367d-0" to="b17e9-0"/>
<connection from="e367d-0" to="be7aa-4-re"/>
<connection from="e367d-0" to="b17e9-0-re"/>
<connection from="e367d-0-re" to="be7aa-4"/>
<connection from="e367d-0-re" to="b17e9-0"/>
<connection from="e367d-0-re" to="be7aa-4-re"/>
<connection from="e367d-0-re" to="b17e9-0-re"/>
<!-- Point 08de8 084dcdcf-9165-4251-b3c8-52cf5b408de8 -->
<connection from="9a295-0" to="e367d-0"/>
<connection from="9a295-0" to="e367d-0-re"/>
<connection from="9a295-0-re" to="e367d-0"/>
<connection from="9a295-0-re" to="e367d-0-re"/>
<connection from="f6a32-0" to="e367d-0"/>
<connection from="f6a32-0" to="e367d-0-re"/>
<connection from="f6a32-0-re" to="e367d-0"/>
<connection from="f6a32-0-re" to="e367d-0-re"/>
<connection from="e367d-0" to="9a295-0"/>
<connection from="e367d-0" to="f6a32-0"/>
<connection from="e367d-0" to="9a295-0-re"/>
<connection from="e367d-0" to="f6a32-0-re"/>
<connection from="e367d-0-re" to="9a295-0"/>
<connection from="e367d-0-re" to="f6a32-0"/>
<connection from="e367d-0-re" to="9a295-0-re"/>
<connection from="e367d-0-re" to="f6a32-0-re"/>
<!-- Point 3d88e bd87b8e0-6495-4d28-b38a-a65d6583d88e -->
<connection from="50dfa-0" to="b94fd-0"/>
<connection from="50dfa-0" to="b94fd-0-re"/>
<connection from="50dfa-0-re" to="b94fd-0"/>
<connection from="50dfa-0-re" to="b94fd-0-re"/>
<connection from="49d29-0" to="b94fd-0"/>
<connection from="49d29-0" to="b94fd-0-re"/>
<connection from="49d29-0-re" to="b94fd-0"/>
<connection from="49d29-0-re" to="b94fd-0-re"/>
<connection from="b94fd-0" to="50dfa-0"/>
<connection from="b94fd-0" to="49d29-0"/>
<connection from="b94fd-0" to="50dfa-0-re"/>
<connection from="b94fd-0" to="49d29-0-re"/>
<connection from="b94fd-0-re" to="50dfa-0"/>
<connection from="b94fd-0-re" to="49d29-0"/>
<connection from="b94fd-0-re" to="50dfa-0-re"/>
<connection from="b94fd-0-re" to="49d29-0-re"/>
<!-- Point 09b26 8c6e6ef6-ec12-4bd4-a640-ec60ff009b26 -->
<connection from="9a8e0-0" to="102bb-4"/>
<connection from="9a8e0-0" to="102bb-4-re"/>
<connection from="9a8e0-0-re" to="102bb-4"/>
<connection from="9a8e0-0-re" to="102bb-4-re"/>
<connection from="f26d9-0" to="102bb-4"/>
<connection from="f26d9-0" to="102bb-4-re"/>
<connection from="f26d9-0-re" to="102bb-4"/>
<connection from="f26d9-0-re" to="102bb-4-re"/>
<connection from="102bb-4" to="9a8e0-0"/>
<connection from="102bb-4" to="f26d9-0"/>
<connection from="102bb-4" to="9a8e0-0-re"/>
<connection from="102bb-4" to="f26d9-0-re"/>
<connection from="102bb-4-re" to="9a8e0-0"/>
<connection from="102bb-4-re" to="f26d9-0"/>
<connection from="102bb-4-re" to="9a8e0-0-re"/>
<connection from="102bb-4-re" to="f26d9-0-re"/>
<!-- Point 25216 8c3e0f50-9aff-4a2c-9027-28f795225216 -->
<connection from="1c323-0" to="b7750-0"/>
<connection from="1c323-0" to="b7750-0-re"/>
<connection from="1c323-0-re" to="b7750-0"/>
<connection from="1c323-0-re" to="b7750-0-re"/>
<connection from="9a8e0-4" to="b7750-0"/>
<connection from="9a8e0-4" to="b7750-0-re"/>
<connection from="9a8e0-4-re" to="b7750-0"/>
<connection from="9a8e0-4-re" to="b7750-0-re"/>
<connection from="b7750-0" to="1c323-0"/>
<connection from="b7750-0" to="9a8e0-4"/>
<connection from="b7750-0" to="1c323-0-re"/>
<connection from="b7750-0" to="9a8e0-4-re"/>
<connection from="b7750-0-re" to="1c323-0"/>
<connection from="b7750-0-re" to="9a8e0-4"/>
<connection from="b7750-0-re" to="1c323-0-re"/>
<connection from="b7750-0-re" to="9a8e0-4-re"/>
<!-- Point 274d0 22eae819-87b9-435c-be0c-84e15e0274d0 -->
<connection from="67406-0" to="b7750-0"/>
<connection from="67406-0" to="b7750-0-re"/>
<connection from="67406-0-re" to="b7750-0"/>
<connection from="67406-0-re" to="b7750-0-re"/>
<connection from="1ba9e-0" to="b7750-0"/>
<connection from="1ba9e-0" to="b7750-0-re"/>
<connection from="1ba9e-0-re" to="b7750-0"/>
<connection from="1ba9e-0-re" to="b7750-0-re"/>
<connection from="b7750-0" to="67406-0"/>
<connection from="b7750-0" to="1ba9e-0"/>
<connection from="b7750-0" to="67406-0-re"/>
<connection from="b7750-0" to="1ba9e-0-re"/>
<connection from="b7750-0-re" to="67406-0"/>
<connection from="b7750-0-re" to="1ba9e-0"/>
<connection from="b7750-0-re" to="67406-0-re"/>
<connection from="b7750-0-re" to="1ba9e-0-re"/>
<!-- Point 5a654 b60bb8dd-902c-410c-bee2-0bba6b05a654 -->
<connection from="1ba9e-4" to="9e602-0"/>
<connection from="1ba9e-4" to="9e602-0-re"/>
<connection from="1ba9e-4-re" to="9e602-0"/>
<connection from="1ba9e-4-re" to="9e602-0-re"/>
<connection from="3817d-0" to="9e602-0"/>
<connection from="3817d-0" to="9e602-0-re"/>
<connection from="3817d-0-re" to="9e602-0"/>
<connection from="3817d-0-re" to="9e602-0-re"/>
<connection from="9e602-0" to="1ba9e-4"/>
<connection from="9e602-0" to="3817d-0"/>
<connection from="9e602-0" to="1ba9e-4-re"/>
<connection from="9e602-0" to="3817d-0-re"/>
<connection from="9e602-0-re" to="1ba9e-4"/>
<connection from="9e602-0-re" to="3817d-0"/>
<connection from="9e602-0-re" to="1ba9e-4-re"/>
<connection from="9e602-0-re" to="3817d-0-re"/>
<!-- Point 76e2b 529af2e1-4638-4cbd-bf07-2fe1b3676e2b -->
<connection from="cd0c2-0" to="82021-0"/>
<connection from="cd0c2-0" to="82021-0-re"/>
<connection from="cd0c2-0-re" to="82021-0"/>
<connection from="cd0c2-0-re" to="82021-0-re"/>
<connection from="b94fd-16" to="82021-0"/>
<connection from="b94fd-16" to="82021-0-re"/>
<connection from="b94fd-16-re" to="82021-0"/>
<connection from="b94fd-16-re" to="82021-0-re"/>
<connection from="82021-0" to="cd0c2-0"/>
<connection from="82021-0" to="b94fd-16"/>
<connection from="82021-0" to="cd0c2-0-re"/>
<connection from="82021-0" to="b94fd-16-re"/>
<connection from="82021-0-re" to="cd0c2-0"/>
<connection from="82021-0-re" to="b94fd-16"/>
<connection from="82021-0-re" to="cd0c2-0-re"/>
<connection from="82021-0-re" to="b94fd-16-re"/>

<!-- Point 0ecf4 edbbbd8c-9d98-4618-ada2-0b8c2f30ecf4 -->
<connection from="193a2-4" to="f7b20-0"/>
<connection from="193a2-4" to="f7b20-0-re"/>
<connection from="193a2-4-re" to="f7b20-0"/>
<connection from="193a2-4-re" to="f7b20-0-re"/>
<connection from="2c915-0" to="f7b20-0"/>
<connection from="2c915-0" to="f7b20-0-re"/>
<connection from="2c915-0-re" to="f7b20-0"/>
<connection from="2c915-0-re" to="f7b20-0-re"/>
<connection from="f7b20-0" to="193a2-4"/>
<connection from="f7b20-0" to="2c915-0"/>
<connection from="f7b20-0" to="193a2-4-re"/>
<connection from="f7b20-0" to="2c915-0-re"/>
<connection from="f7b20-0-re" to="193a2-4"/>
<connection from="f7b20-0-re" to="2c915-0"/>
<connection from="f7b20-0-re" to="193a2-4-re"/>
<connection from="f7b20-0-re" to="2c915-0-re"/>

<!-- Point 62a11 0ea66dcc-b095-4070-9d31-1682b1762a11 -->
<connection from="f7b20-4" to="fc9aa-0"/>
<connection from="f7b20-4" to="fc9aa-0-re"/>
<connection from="f7b20-4-re" to="fc9aa-0"/>
<connection from="f7b20-4-re" to="fc9aa-0-re"/>
<connection from="58919-0" to="fc9aa-0"/>
<connection from="58919-0" to="fc9aa-0-re"/>
<connection from="58919-0-re" to="fc9aa-0"/>
<connection from="58919-0-re" to="fc9aa-0-re"/>
<connection from="fc9aa-0" to="f7b20-4"/>
<connection from="fc9aa-0" to="58919-0"/>
<connection from="fc9aa-0" to="f7b20-4-re"/>
<connection from="fc9aa-0" to="58919-0-re"/>
<connection from="fc9aa-0-re" to="f7b20-4"/>
<connection from="fc9aa-0-re" to="58919-0"/>
<connection from="fc9aa-0-re" to="f7b20-4-re"/>
<connection from="fc9aa-0-re" to="58919-0-re"/>
<!-- Point 5b1f7 41b7e923-7a25-477d-bb72-d14c39d5b1f7 -->
<connection from="6c9ec-0" to="1631f-0"/>
<connection from="6c9ec-0" to="1631f-0-re"/>
<connection from="6c9ec-0-re" to="1631f-0"/>
<connection from="6c9ec-0-re" to="1631f-0-re"/>
<connection from="fc9aa-4" to="1631f-0"/>
<connection from="fc9aa-4" to="1631f-0-re"/>
<connection from="fc9aa-4-re" to="1631f-0"/>
<connection from="fc9aa-4-re" to="1631f-0-re"/>
<connection from="1631f-0" to="6c9ec-0"/>
<connection from="1631f-0" to="fc9aa-4"/>
<connection from="1631f-0" to="6c9ec-0-re"/>
<connection from="1631f-0" to="fc9aa-4-re"/>
<connection from="1631f-0-re" to="6c9ec-0"/>
<connection from="1631f-0-re" to="fc9aa-4"/>
<connection from="1631f-0-re" to="6c9ec-0-re"/>
<connection from="1631f-0-re" to="fc9aa-4-re"/>
<!-- Point c3124 88c189e5-23ae-4e87-b676-06da26ac3124 -->
<connection from="51096-0" to="1631f-0"/>
<connection from="51096-0" to="1631f-0-re"/>
<connection from="51096-0-re" to="1631f-0"/>
<connection from="51096-0-re" to="1631f-0-re"/>
<connection from="739ed-0" to="1631f-0"/>
<connection from="739ed-0" to="1631f-0-re"/>
<connection from="739ed-0-re" to="1631f-0"/>
<connection from="739ed-0-re" to="1631f-0-re"/>
<connection from="1631f-0" to="51096-0"/>
<connection from="1631f-0" to="739ed-0"/>
<connection from="1631f-0" to="51096-0-re"/>
<connection from="1631f-0" to="739ed-0-re"/>
<connection from="1631f-0-re" to="51096-0"/>
<connection from="1631f-0-re" to="739ed-0"/>
<connection from="1631f-0-re" to="51096-0-re"/>
<connection from="1631f-0-re" to="739ed-0-re"/>
<!-- Point 6a86d a19b1f66-a6a6-48bd-a77c-7b097ab6a86d -->
<connection from="f3ccc-0" to="2e099-0"/>
<connection from="f3ccc-0" to="2e099-0-re"/>
<connection from="f3ccc-0-re" to="2e099-0"/>
<connection from="f3ccc-0-re" to="2e099-0-re"/>
<connection from="51096-4" to="2e099-0"/>
<connection from="51096-4" to="2e099-0-re"/>
<connection from="51096-4-re" to="2e099-0"/>
<connection from="51096-4-re" to="2e099-0-re"/>
<connection from="2e099-0" to="f3ccc-0"/>
<connection from="2e099-0" to="51096-4"/>
<connection from="2e099-0" to="f3ccc-0-re"/>
<connection from="2e099-0" to="51096-4-re"/>
<connection from="2e099-0-re" to="f3ccc-0"/>
<connection from="2e099-0-re" to="51096-4"/>
<connection from="2e099-0-re" to="f3ccc-0-re"/>
<connection from="2e099-0-re" to="51096-4-re"/>
<!-- Point 8d010 542d24cd-5018-4997-b4fb-ad907428d010 -->
<connection from="51f75-0" to="2e099-4"/>
<connection from="51f75-0" to="2e099-4-re"/>
<connection from="51f75-0-re" to="2e099-4"/>
<connection from="51f75-0-re" to="2e099-4-re"/>
<connection from="1efda-0" to="2e099-4"/>
<connection from="1efda-0" to="2e099-4-re"/>
<connection from="1efda-0-re" to="2e099-4"/>
<connection from="1efda-0-re" to="2e099-4-re"/>
<connection from="2e099-4" to="51f75-0"/>
<connection from="2e099-4" to="1efda-0"/>
<connection from="2e099-4" to="51f75-0-re"/>
<connection from="2e099-4" to="1efda-0-re"/>
<connection from="2e099-4-re" to="51f75-0"/>
<connection from="2e099-4-re" to="1efda-0"/>
<connection from="2e099-4-re" to="51f75-0-re"/>
<connection from="2e099-4-re" to="1efda-0-re"/>
<!-- Point c8784 775aeb8b-b1ef-4a31-85c2-6b7f2cdc8784 -->
<connection from="3bc44-0" to="4fc8d-0"/>
<connection from="3bc44-0" to="4fc8d-0-re"/>
<connection from="3bc44-0-re" to="4fc8d-0"/>
<connection from="3bc44-0-re" to="4fc8d-0-re"/>
<connection from="51f75-4" to="4fc8d-0"/>
<connection from="51f75-4" to="4fc8d-0-re"/>
<connection from="51f75-4-re" to="4fc8d-0"/>
<connection from="51f75-4-re" to="4fc8d-0-re"/>
<connection from="4fc8d-0" to="3bc44-0"/>
<connection from="4fc8d-0" to="51f75-4"/>
<connection from="4fc8d-0" to="3bc44-0-re"/>
<connection from="4fc8d-0" to="51f75-4-re"/>
<connection from="4fc8d-0-re" to="3bc44-0"/>
<connection from="4fc8d-0-re" to="51f75-4"/>
<connection from="4fc8d-0-re" to="3bc44-0-re"/>
<connection from="4fc8d-0-re" to="51f75-4-re"/>
<!-- Point b96e9 1131d5ec-0869-4e82-9218-184ffafb96e9 -->
<connection from="4fc8d-4" to="9a3e6-0"/>
<connection from="4fc8d-4" to="9a3e6-0-re"/>
<connection from="4fc8d-4-re" to="9a3e6-0"/>
<connection from="4fc8d-4-re" to="9a3e6-0-re"/>
<connection from="61ad4-0" to="9a3e6-0"/>
<connection from="61ad4-0" to="9a3e6-0-re"/>
<connection from="61ad4-0-re" to="9a3e6-0"/>
<connection from="61ad4-0-re" to="9a3e6-0-re"/>
<connection from="9a3e6-0" to="4fc8d-4"/>
<connection from="9a3e6-0" to="61ad4-0"/>
<connection from="9a3e6-0" to="4fc8d-4-re"/>
<connection from="9a3e6-0" to="61ad4-0-re"/>
<connection from="9a3e6-0-re" to="4fc8d-4"/>
<connection from="9a3e6-0-re" to="61ad4-0"/>
<connection from="9a3e6-0-re" to="4fc8d-4-re"/>
<connection from="9a3e6-0-re" to="61ad4-0-re"/>
<!-- Point 26c0e a6f34d37-57dc-41d8-b41f-66e315226c0e -->
<connection from="dbde1-0" to="48ab9-0"/>
<connection from="dbde1-0" to="48ab9-0-re"/>
<connection from="dbde1-0-re" to="48ab9-0"/>
<connection from="dbde1-0-re" to="48ab9-0-re"/>
<connection from="d27c5-0" to="48ab9-0"/>
<connection from="d27c5-0" to="48ab9-0-re"/>
<connection from="d27c5-0-re" to="48ab9-0"/>
<connection from="d27c5-0-re" to="48ab9-0-re"/>
<connection from="48ab9-0" to="dbde1-0"/>
<connection from="48ab9-0" to="d27c5-0"/>
<connection from="48ab9-0" to="dbde1-0-re"/>
<connection from="48ab9-0" to="d27c5-0-re"/>
<connection from="48ab9-0-re" to="dbde1-0"/>
<connection from="48ab9-0-re" to="d27c5-0"/>
<connection from="48ab9-0-re" to="dbde1-0-re"/>
<connection from="48ab9-0-re" to="d27c5-0-re"/>
<!-- Point 0172c 1370e33c-9041-4093-987a-498d5570172c -->
<connection from="dbde1-4" to="c0ee1-0"/>
<connection from="dbde1-4" to="c0ee1-0-re"/>
<connection from="dbde1-4-re" to="c0ee1-0"/>
<connection from="dbde1-4-re" to="c0ee1-0-re"/>
<connection from="6f735-0" to="c0ee1-0"/>
<connection from="6f735-0" to="c0ee1-0-re"/>
<connection from="6f735-0-re" to="c0ee1-0"/>
<connection from="6f735-0-re" to="c0ee1-0-re"/>
<connection from="c0ee1-0" to="dbde1-4"/>
<connection from="c0ee1-0" to="6f735-0"/>
<connection from="c0ee1-0" to="dbde1-4-re"/>
<connection from="c0ee1-0" to="6f735-0-re"/>
<connection from="c0ee1-0-re" to="dbde1-4"/>
<connection from="c0ee1-0-re" to="6f735-0"/>
<connection from="c0ee1-0-re" to="dbde1-4-re"/>
<connection from="c0ee1-0-re" to="6f735-0-re"/>
<!-- Point b5e2c 152ccde3-c572-48c6-a8b4-62921b6b5e2c -->
<connection from="67406-4" to="c0ee1-0"/>
<connection from="67406-4" to="c0ee1-0-re"/>
<connection from="67406-4-re" to="c0ee1-0"/>
<connection from="67406-4-re" to="c0ee1-0-re"/>
<connection from="55ec5-0" to="c0ee1-0"/>
<connection from="55ec5-0" to="c0ee1-0-re"/>
<connection from="55ec5-0-re" to="c0ee1-0"/>
<connection from="55ec5-0-re" to="c0ee1-0-re"/>
<connection from="c0ee1-0" to="67406-4"/>
<connection from="c0ee1-0" to="55ec5-0"/>
<connection from="c0ee1-0" to="67406-4-re"/>
<connection from="c0ee1-0" to="55ec5-0-re"/>
<connection from="c0ee1-0-re" to="67406-4"/>
<connection from="c0ee1-0-re" to="55ec5-0"/>
<connection from="c0ee1-0-re" to="67406-4-re"/>
<connection from="c0ee1-0-re" to="55ec5-0-re"/>
<!-- Point e8a38 2c4418fd-5cf6-44fa-b19e-82faf20e8a38 -->
<connection from="b85a0-0" to="55ec5-0"/>
<connection from="b85a0-0" to="55ec5-0-re"/>
<connection from="b85a0-0-re" to="55ec5-0"/>
<connection from="b85a0-0-re" to="55ec5-0-re"/>
<connection from="436ec-0" to="55ec5-0"/>
<connection from="436ec-0" to="55ec5-0-re"/>
<connection from="436ec-0-re" to="55ec5-0"/>
<connection from="436ec-0-re" to="55ec5-0-re"/>
<connection from="55ec5-0" to="b85a0-0"/>
<connection from="55ec5-0" to="436ec-0"/>
<connection from="55ec5-0" to="b85a0-0-re"/>
<connection from="55ec5-0" to="436ec-0-re"/>
<connection from="55ec5-0-re" to="b85a0-0"/>
<connection from="55ec5-0-re" to="436ec-0"/>
<connection from="55ec5-0-re" to="b85a0-0-re"/>
<connection from="55ec5-0-re" to="436ec-0-re"/>
<!-- Point 67335 ced98515-9b32-4bcb-b15a-b673b2267335 -->
<connection from="f3ccc-4" to="7cdf1-0"/>
<connection from="f3ccc-4" to="7cdf1-0-re"/>
<connection from="f3ccc-4-re" to="7cdf1-0"/>
<connection from="f3ccc-4-re" to="7cdf1-0-re"/>
<connection from="44337-0" to="7cdf1-0"/>
<connection from="44337-0" to="7cdf1-0-re"/>
<connection from="44337-0-re" to="7cdf1-0"/>
<connection from="44337-0-re" to="7cdf1-0-re"/>
<connection from="7cdf1-0" to="f3ccc-4"/>
<connection from="7cdf1-0" to="44337-0"/>
<connection from="7cdf1-0" to="f3ccc-4-re"/>
<connection from="7cdf1-0" to="44337-0-re"/>
<connection from="7cdf1-0-re" to="f3ccc-4"/>
<connection from="7cdf1-0-re" to="44337-0"/>
<connection from="7cdf1-0-re" to="f3ccc-4-re"/>
<connection from="7cdf1-0-re" to="44337-0-re"/>
<!-- Point a2add 5ba6890f-64c8-44f5-81cb-fa5b26ba2add -->
<connection from="f765a-0" to="7cdf1-0"/>
<connection from="f765a-0" to="7cdf1-0-re"/>
<connection from="f765a-0-re" to="7cdf1-0"/>
<connection from="f765a-0-re" to="7cdf1-0-re"/>
<connection from="739ed-4" to="7cdf1-0"/>
<connection from="739ed-4" to="7cdf1-0-re"/>
<connection from="739ed-4-re" to="7cdf1-0"/>
<connection from="739ed-4-re" to="7cdf1-0-re"/>
<connection from="7cdf1-0" to="f765a-0"/>
<connection from="7cdf1-0" to="739ed-4"/>
<connection from="7cdf1-0" to="f765a-0-re"/>
<connection from="7cdf1-0" to="739ed-4-re"/>
<connection from="7cdf1-0-re" to="f765a-0"/>
<connection from="7cdf1-0-re" to="739ed-4"/>
<connection from="7cdf1-0-re" to="f765a-0-re"/>
<connection from="7cdf1-0-re" to="739ed-4-re"/>
<!-- Point fe815 43924321-e3e4-4650-bf5d-6abad05fe815 -->
<connection from="2f5ef-0" to="e2d12-0"/>
<connection from="2f5ef-0" to="e2d12-0-re"/>
<connection from="2f5ef-0-re" to="e2d12-0"/>
<connection from="2f5ef-0-re" to="e2d12-0-re"/>
<connection from="03666-0" to="e2d12-0"/>
<connection from="03666-0" to="e2d12-0-re"/>
<connection from="03666-0-re" to="e2d12-0"/>
<connection from="03666-0-re" to="e2d12-0-re"/>
<connection from="e2d12-0" to="2f5ef-0"/>
<connection from="e2d12-0" to="03666-0"/>
<connection from="e2d12-0" to="2f5ef-0-re"/>
<connection from="e2d12-0" to="03666-0-re"/>
<connection from="e2d12-0-re" to="2f5ef-0"/>
<connection from="e2d12-0-re" to="03666-0"/>
<connection from="e2d12-0-re" to="2f5ef-0-re"/>
<connection from="e2d12-0-re" to="03666-0-re"/>
<!-- Point d12a1 fc0ca145-11a9-4944-b477-09a45b0d12a1 -->
<connection from="2f5ef-4" to="d7f6e-0"/>
<connection from="2f5ef-4" to="d7f6e-0-re"/>
<connection from="2f5ef-4-re" to="d7f6e-0"/>
<connection from="2f5ef-4-re" to="d7f6e-0-re"/>
<connection from="6df8c-0" to="d7f6e-0"/>
<connection from="6df8c-0" to="d7f6e-0-re"/>
<connection from="6df8c-0-re" to="d7f6e-0"/>