<connections>
<!-- Point b4c43 4c152897-7c9e-4d50-9fc2-8c7b825b4c43 -->
<connection from="1daa3-0" to="22787-0"/>
<connection from="1daa3-0" to="22787-0-re"/>
<connection from="1daa3-0-re" to="22787-0"/>
<connection from="1daa3-0-re" to="22787-0-re"/>
<connection from="f6d82-0" to="22787-0"/>
<connection from="f6d82-0" to="22787-0-re"/>
<connection from="f6d82-0-re" to="22787-0"/>
<connection from="f6d82-0-re" to="22787-0-re"/>
<connection from="22787-0" to="1daa3-0"/>
<connection from="22787-0" to="f6d82-0"/>
<connection from="22787-0" to="1daa3-0-re"/>
<connection from="22787-0" to="f6d82-0-re"/>
<connection from="22787-0-re" to="1daa3-0"/>
<connection from="22787-0-re" to="f6d82-0"/>
<connection from="22787-0-re" to="1daa3-0-re"/>
<connection from="22787-0-re" to="f6d82-0-re"/>
<!-- Point 8b6a4 9f272c04-f864-47b5-8e58-d9ff0b98b6a4 -->
<connection from="89a43-0" to="f6d82-4"/>
<connection from="89a43-0" to="f6d82-4-re"/>
<connection from="89a43-0-re" to="f6d82-4"/>
<connection from="89a43-0-re" to="f6d82-4-re"/>
<connection from="e49bb-0" to="f6d82-4"/>
<connection from="e49bb-0" to="f6d82-4-re"/>
<connection from="e49bb-0-re" to="f6d82-4"/>
<connection from="e49bb-0-re" to="f6d82-4-re"/>
<connection from="f6d82-4" to="89a43-0"/>
<connection from="f6d82-4" to="e49bb-0"/>
<connection from="f6d82-4" to="89a43-0-re"/>
<connection from="f6d82-4" to="e49bb-0-re"/>
<connection from="f6d82-4-re" to="89a43-0"/>
<connection from="f6d82-4-re" to="e49bb-0"/>
<connection from="f6d82-4-re" to="89a43-0-re"/>
<connection from="f6d82-4-re" to="e49bb-0-re"/>
<!-- Point 294ea c0d2ac12-231e-4032-912b-fcb7d03294ea -->
<connection from="8ecd9-0" to="90162-0"/>
<connection from="8ecd9-0" to="90162-0-re"/>
<connection from="8ecd9-0-re" to="90162-0"/>
<connection from="8ecd9-0-re" to="90162-0-re"/>
<connection from="89a43-4" to="90162-0"/>
<connection from="89a43-4" to="90162-0-re"/>
<connection from="89a43-4-re" to="90162-0"/>
<connection from="89a43-4-re" to="90162-0-re"/>
<connection from="90162-0" to="8ecd9-0"/>
<connection from="90162-0" to="89a43-4"/>
<connection from="90162-0" to="8ecd9-0-re"/>
<connection from="90162-0" to="89a43-4-re"/>
<connection from="90162-0-re" to="8ecd9-0"/>
<connection from="90162-0-re" to="89a43-4"/>
<connection from="90162-0-re" to="8ecd9-0-re"/>
<connection from="90162-0-re" to="89a43-4-re"/>
<!-- Point b8442 217af966-a838-4ece-ae16-97137eab8442 -->
<connection from="90162-4" to="0a73d-0"/>
<connection from="90162-4" to="0a73d-0-re"/>
<connection from="90162-4-re" to="0a73d-0"/>
<connection from="90162-4-re" to="0a73d-0-re"/>
<connection from="b12bb-0" to="0a73d-0"/>
<connection from="b12bb-0" to="0a73d-0-re"/>
<connection from="b12bb-0-re" to="0a73d-0"/>
<connection from="b12bb-0-re" to="0a73d-0-re"/>
<connection from="0a73d-0" to="90162-4"/>
<connection from="0a73d-0" to="b12bb-0"/>
<connection from="0a73d-0" to="90162-4-re"/>
<connection from="0a73d-0" to="b12bb-0-re"/>
<connection from="0a73d-0-re" to="90162-4"/>
<connection from="0a73d-0-re" to="b12bb-0"/>
<connection from="0a73d-0-re" to="90162-4-re"/>
<connection from="0a73d-0-re" to="b12bb-0-re"/>
<!-- Point 9c3c5 32b474a5-02e2-4558-a18e-5508da49c3c5 -->
<connection from="2005e-0" to="ef2bf-0"/>
<connection from="2005e-0" to="ef2bf-0-re"/>
<connection from="2005e-0-re" to="ef2bf-0"/>
<connection from="2005e-0-re" to="ef2bf-0-re"/>
<connection from="2f17f-0" to="ef2bf-0"/>
<connection from="2f17f-0" to="ef2bf-0-re"/>
<connection from="2f17f-0-re" to="ef2bf-0"/>
<connection from="2f17f-0-re" to="ef2bf-0-re"/>
<connection from="ef2bf-0" to="2005e-0"/>
<connection from="ef2bf-0" to="2f17f-0"/>
<connection from="ef2bf-0" to="2005e-0-re"/>
<connection from="ef2bf-0" to="2f17f-0-re"/>
<connection from="ef2bf-0-re" to="2005e-0"/>
<connection from="ef2bf-0-re" to="2f17f-0"/>
<connection from="ef2bf-0-re" to="2005e-0-re"/>
<connection from="ef2bf-0-re" to="2f17f-0-re"/>
<!-- Point ada06 35b0eb7f-6e6d-4595-81fd-b9e7937ada06 -->
<connection from="334d7-0" to="1224d-0"/>
<connection from="334d7-0" to="1224d-0-re"/>
<connection from="334d7-0-re" to="1224d-0"/>
<connection from="334d7-0-re" to="1224d-0-re"/>
<connection from="2f17f-4" to="1224d-0"/>
<connection from="2f17f-4" to="1224d-0-re"/>
<connection from="2f17f-4-re" to="1224d-0"/>
<connection from="2f17f-4-re" to="1224d-0-re"/>
<connection from="1224d-0" to="334d7-0"/>
<connection from="1224d-0" to="2f17f-4"/>
<connection from="1224d-0" to="334d7-0-re"/>
<connection from="1224d-0" to="2f17f-4-re"/>
<connection from="1224d-0-re" to="334d7-0"/>
<connection from="1224d-0-re" to="2f17f-4"/>
<connection from="1224d-0-re" to="334d7-0-re"/>
<connection from="1224d-0-re" to="2f17f-4-re"/>
<!-- Point eb5a3 fc048440-a951-45ab-ad3d-c0d5d69eb5a3 -->
<connection from="434c9-0" to="1ddd9-0"/>
<connection from="434c9-0" to="1ddd9-0-re"/>
<connection from="434c9-0-re" to="1ddd9-0"/>
<connection from="434c9-0-re" to="1ddd9-0-re"/>
<connection from="eda39-0" to="1ddd9-0"/>
<connection from="eda39-0" to="1ddd9-0-re"/>
<connection from="eda39-0-re" to="1ddd9-0"/>
<connection from="eda39-0-re" to="1ddd9-0-re"/>
<connection from="1ddd9-0" to="434c9-0"/>
<connection from="1ddd9-0" to="eda39-0"/>
<connection from="1ddd9-0" to="434c9-0-re"/>
<connection from="1ddd9-0" to="eda39-0-re"/>
<connection from="1ddd9-0-re" to="434c9-0"/>
<connection from="1ddd9-0-re" to="eda39-0"/>
<connection from="1ddd9-0-re" to="434c9-0-re"/>
<connection from="1ddd9-0-re" to="eda39-0-re"/>
<!-- Point 665fa 6f9c9f70-6246-45f7-9c2f-baa4e0e665fa -->
<connection from="798c0-0" to="f5388-0"/>
<connection from="798c0-0" to="f5388-0-re"/>
<connection from="798c0-0-re" to="f5388-0"/>
<connection from="798c0-0-re" to="f5388-0-re"/>
<connection from="88eb6-0" to="f5388-0"/>
<connection from="88eb6-0" to="f5388-0-re"/>
<connection from="88eb6-0-re" to="f5388-0"/>
<connection from="88eb6-0-re" to="f5388-0-re"/>
<connection from="f5388-0" to="798c0-0"/>
<connection from="f5388-0" to="88eb6-0"/>
<connection from="f5388-0" to="798c0-0-re"/>
<connection from="f5388-0" to="88eb6-0-re"/>
<connection from="f5388-0-re" to="798c0-0"/>
<connection from="f5388-0-re" to="88eb6-0"/>
<connection from="f5388-0-re" to="798c0-0-re"/>
<connection from="f5388-0-re" to="88eb6-0-re"/>
<!-- Point ae8f2 5da337af-7c43-40bc-95e4-8c6e067ae8f2 -->
<connection from="887f2-0" to="88eb6-0"/>
<connection from="887f2-0" to="88eb6-0-re"/>
<connection from="887f2-0-re" to="88eb6-0"/>
<connection from="887f2-0-re" to="88eb6-0-re"/>
<connection from="5f35c-0" to="88eb6-0"/>
<connection from="5f35c-0" to="88eb6-0-re"/>
<connection from="5f35c-0-re" to="88eb6-0"/>
<connection from="5f35c-0-re" to="88eb6-0-re"/>
<connection from="88eb6-0" to="887f2-0"/>
<connection from="88eb6-0" to="5f35c-0"/>
<connection from="88eb6-0" to="887f2-0-re"/>
<connection from="88eb6-0" to="5f35c-0-re"/>
<connection from="88eb6-0-re" to="887f2-0"/>
<connection from="88eb6-0-re" to="5f35c-0"/>
<connection from="88eb6-0-re" to="887f2-0-re"/>
<connection from="88eb6-0-re" to="5f35c-0-re"/>
<!-- Point af9e7 697eacb6-3d12-434c-b83f-1c00fb6af9e7 -->
<connection from="78c1f-0" to="c7a89-0"/>
<connection from="78c1f-0" to="c7a89-0-re"/>
<connection from="78c1f-0-re" to="c7a89-0"/>
<connection from="78c1f-0-re" to="c7a89-0-re"/>
<connection from="5f35c-4" to="c7a89-0"/>
<connection from="5f35c-4" to="c7a89-0-re"/>
<connection from="5f35c-4-re" to="c7a89-0"/>
<connection from="5f35c-4-re" to="c7a89-0-re"/>
<connection from="c7a89-0" to="78c1f-0"/>
<connection from="c7a89-0" to="5f35c-4"/>
<connection from="c7a89-0" to="78c1f-0-re"/>
<connection from="c7a89-0" to="5f35c-4-re"/>
<connection from="c7a89-0-re" to="78c1f-0"/>
<connection from="c7a89-0-re" to="5f35c-4"/>
<connection from="c7a89-0-re" to="78c1f-0-re"/>
<connection from="c7a89-0-re" to="5f35c-4-re"/>
<!-- Point 9b30e f8c88b51-74ba-495c-b6c0-e076c989b30e -->
<connection from="c7a89-0" to="db523-0"/>
<connection from="c7a89-0" to="db523-0-re"/>
<connection from="c7a89-0-re" to="db523-0"/>
<connection from="c7a89-0-re" to="db523-0-re"/>
<connection from="23d95-0" to="db523-0"/>
<connection from="23d95-0" to="db523-0-re"/>
<connection from="23d95-0-re" to="db523-0"/>
<connection from="23d95-0-re" to="db523-0-re"/>
<connection from="db523-0" to="c7a89-0"/>
<connection from="db523-0" to="23d95-0"/>
<connection from="db523-0" to="c7a89-0-re"/>
<connection from="db523-0" to="23d95-0-re"/>
<connection from="db523-0-re" to="c7a89-0"/>
<connection from="db523-0-re" to="23d95-0"/>
<connection from="db523-0-re" to="c7a89-0-re"/>
<connection from="db523-0-re" to="23d95-0-re"/>
<!-- Point c7511 2201e142-3652-435a-93e8-fede4e6c7511 -->
<connection from="db523-0" to="fdce2-0"/>
<connection from="db523-0" to="fdce2-0-re"/>
<connection from="db523-0-re" to="fdce2-0"/>
<connection from="db523-0-re" to="fdce2-0-re"/>
<connection from="e826f-0" to="fdce2-0"/>
<connection from="e826f-0" to="fdce2-0-re"/>
<connection from="e826f-0-re" to="fdce2-0"/>
<connection from="e826f-0-re" to="fdce2-0-re"/>
<connection from="fdce2-0" to="db523-0"/>
<connection from="fdce2-0" to="e826f-0"/>
<connection from="fdce2-0" to="db523-0-re"/>
<connection from="fdce2-0" to="e826f-0-re"/>
<connection from="fdce2-0-re" to="db523-0"/>
<connection from="fdce2-0-re" to="e826f-0"/>
<connection from="fdce2-0-re" to="db523-0-re"/>
<connection from="fdce2-0-re" to="e826f-0-re"/>
<!-- Point 7f049 e196b5f4-99df-4ce2-8769-559ab7d7f049 -->
<connection from="22a97-0" to="fdce2-4"/>
<connection from="22a97-0" to="fdce2-4-re"/>
<connection from="22a97-0-re" to="fdce2-4"/>
<connection from="22a97-0-re" to="fdce2-4-re"/>
<connection from="773fc-0" to="fdce2-4"/>
<connection from="773fc-0" to="fdce2-4-re"/>
<connection from="773fc-0-re" to="fdce2-4"/>
<connection from="773fc-0-re" to="fdce2-4-re"/>
<connection from="fdce2-4" to="22a97-0"/>
<connection from="fdce2-4" to="773fc-0"/>
<connection from="fdce2-4" to="22a97-0-re"/>
<connection from="fdce2-4" to="773fc-0-re"/>
<connection from="fdce2-4-re" to="22a97-0"/>
<connection from="fdce2-4-re" to="773fc-0"/>
<connection from="fdce2-4-re" to="22a97-0-re"/>
<connection from="fdce2-4-re" to="773fc-0-re"/>
<!-- Point b9aa1 ef32b178-82fa-4025-9b6b-d462c45b9aa1 -->
<connection from="c09ac-0" to="66daf-0"/>
<connection from="c09ac-0" to="66daf-0-re"/>
<connection from="c09ac-0-re" to="66daf-0"/>
<connection from="c09ac-0-re" to="66daf-0-re"/>
<connection from="773fc-4" to="66daf-0"/>
<connection from="773fc-4" to="66daf-0-re"/>
<connection from="773fc-4-re" to="66daf-0"/>
<connection from="773fc-4-re" to="66daf-0-re"/>
<connection from="66daf-0" to="c09ac-0"/>
<connection from="66daf-0" to="773fc-4"/>
<connection from="66daf-0" to="c09ac-0-re"/>
<connection from="66daf-0" to="773fc-4-re"/>
<connection from="66daf-0-re" to="c09ac-0"/>
<connection from="66daf-0-re" to="773fc-4"/>
<connection from="66daf-0-re" to="c09ac-0-re"/>
<connection from="66daf-0-re" to="773fc-4-re"/>

<!-- Point 0d41c 364f3613-911b-4915-899b-57b099c0d41c -->
<connection from="f197e-0" to="6602d-0"/>
<connection from="f197e-0" to="6602d-0-re"/>
<connection from="f197e-0-re" to="6602d-0"/>
<connection from="f197e-0-re" to="6602d-0-re"/>
<connection from="416a2-0" to="6602d-0"/>
<connection from="416a2-0" to="6602d-0-re"/>
<connection from="416a2-0-re" to="6602d-0"/>
<connection from="416a2-0-re" to="6602d-0-re"/>
<connection from="6602d-0" to="f197e-0"/>
<connection from="6602d-0" to="416a2-0"/>
<connection from="6602d-0" to="f197e-0-re"/>
<connection from="6602d-0" to="416a2-0-re"/>
<connection from="6602d-0-re" to="f197e-0"/>
<connection from="6602d-0-re" to="416a2-0"/>
<connection from="6602d-0-re" to="f197e-0-re"/>
<connection from="6602d-0-re" to="416a2-0-re"/>
<!-- Point ed9c9 2f484452-63bb-49fd-80b6-b9cd520ed9c9 -->
<connection from="f197e-4" to="60d73-0"/>
<connection from="f197e-4" to="60d73-0-re"/>
<connection from="f197e-4-re" to="60d73-0"/>
<connection from="f197e-4-re" to="60d73-0-re"/>
<connection from="3b428-0" to="60d73-0"/>
<connection from="3b428-0" to="60d73-0-re"/>
<connection from="3b428-0-re" to="60d73-0"/>
<connection from="3b428-0-re" to="60d73-0-re"/>
<connection from="60d73-0" to="f197e-4"/>
<connection from="60d73-0" to="3b428-0"/>
<connection from="60d73-0" to="f197e-4-re"/>
<connection from="60d73-0" to="3b428-0-re"/>
<connection from="60d73-0-re" to="f197e-4"/>
<connection from="60d73-0-re" to="3b428-0"/>
<connection from="60d73-0-re" to="f197e-4-re"/>
<connection from="60d73-0-re" to="3b428-0-re"/>
<!-- Point a0211 5bb0cc6c-8ff0-4445-a164-3018a21a0211 -->
<connection from="2fc52-0" to="60d73-0"/>
<connection from="2fc52-0" to="60d73-0-re"/>
<connection from="2fc52-0-re" to="60d73-0"/>
<connection from="2fc52-0-re" to="60d73-0-re"/>
<connection from="59a05-0" to="60d73-0"/>
<connection from="59a05-0" to="60d73-0-re"/>
<connection from="59a05-0-re" to="60d73-0"/>
<connection from="59a05-0-re" to="60d73-0-re"/>
<connection from="60d73-0" to="2fc52-0"/>
<connection from="60d73-0" to="59a05-0"/>
<connection from="60d73-0" to="2fc52-0-re"/>
<connection from="60d73-0" to="59a05-0-re"/>
<connection from="60d73-0-re" to="2fc52-0"/>
<connection from="60d73-0-re" to="59a05-0"/>
<connection from="60d73-0-re" to="2fc52-0-re"/>
<connection from="60d73-0-re" to="59a05-0-re"/>
<!-- Point a472d 02817c22-deef-4083-a1e5-d2e8379a472d -->
<connection from="61fda-0" to="4bdd3-0"/>
<connection from="61fda-0" to="4bdd3-0-re"/>
<connection from="61fda-0-re" to="4bdd3-0"/>
<connection from="61fda-0-re" to="4bdd3-0-re"/>
<connection from="75abb-0" to="4bdd3-0"/>
<connection from="75abb-0" to="4bdd3-0-re"/>
<connection from="75abb-0-re" to="4bdd3-0"/>
<connection from="75abb-0-re" to="4bdd3-0-re"/>
<connection from="4bdd3-0" to="61fda-0"/>
<connection from="4bdd3-0" to="75abb-0"/>
<connection from="4bdd3-0" to="61fda-0-re"/>
<connection from="4bdd3-0" to="75abb-0-re"/>
<connection from="4bdd3-0-re" to="61fda-0"/>
<connection from="4bdd3-0-re" to="75abb-0"/>
<connection from="4bdd3-0-re" to="61fda-0-re"/>
<connection from="4bdd3-0-re" to="75abb-0-re"/>
<!-- Point 22ce0 f8d38285-692d-4a46-b3e4-9034c1d22ce0 -->
<connection from="73566-0" to="1224d-4"/>
<connection from="73566-0" to="1224d-4-re"/>
<connection from="73566-0-re" to="1224d-4"/>
<connection from="73566-0-re" to="1224d-4-re"/>
<connection from="ee971-0" to="1224d-4"/>
<connection from="ee971-0" to="1224d-4-re"/>
<connection from="ee971-0-re" to="1224d-4"/>
<connection from="ee971-0-re" to="1224d-4-re"/>
<connection from="1224d-4" to="73566-0"/>
<connection from="1224d-4" to="ee971-0"/>
<connection from="1224d-4" to="73566-0-re"/>
<connection from="1224d-4" to="ee971-0-re"/>
<connection from="1224d-4-re" to="73566-0"/>
<connection from="1224d-4-re" to="ee971-0"/>
<connection from="1224d-4-re" to="73566-0-re"/>
<connection from="1224d-4-re" to="ee971-0-re"/>
<!-- Point 745d2 c66692b1-96bd-41ca-9f98-faff598745d2 -->
<connection from="86450-0" to="c21cc-0"/>
<connection from="86450-0" to="c21cc-0-re"/>
<connection from="86450-0-re" to="c21cc-0"/>
<connection from="86450-0-re" to="c21cc-0-re"/>
<connection from="73566-4" to="c21cc-0"/>
<connection from="73566-4" to="c21cc-0-re"/>
<connection from="73566-4-re" to="c21cc-0"/>
<connection from="73566-4-re" to="c21cc-0-re"/>
<connection from="c21cc-0" to="86450-0"/>
<connection from="c21cc-0" to="73566-4"/>
<connection from="c21cc-0" to="86450-0-re"/>
<connection from="c21cc-0" to="73566-4-re"/>
<connection from="c21cc-0-re" to="86450-0"/>
<connection from="c21cc-0-re" to="73566-4"/>
<connection from="c21cc-0-re" to="86450-0-re"/>
<connection from="c21cc-0-re" to="73566-4-re"/>
<!-- Point bfd45 094e7fa0-27ad-4bd2-9db8-083f1febfd45 -->
<connection from="4d334-0" to="c21cc-0"/>
<connection from="4d334-0" to="c21cc-0-re"/>
<connection from="4d334-0-re" to="c21cc-0"/>
<connection from="4d334-0-re" to="c21cc-0-re"/>
<connection from="bf8fe-0" to="c21cc-0"/>
<connection from="bf8fe-0" to="c21cc-0-re"/>
<connection from="bf8fe-0-re" to="c21cc-0"/>
<connection from="bf8fe-0-re" to="c21cc-0-re"/>
<connection from="c21cc-0" to="4d334-0"/>
<connection from="c21cc-0" to="bf8fe-0"/>
<connection from="c21cc-0" to="4d334-0-re"/>
<connection from="c21cc-0" to="bf8fe-0-re"/>
<connection from="c21cc-0-re" to="4d334-0"/>
<connection from="c21cc-0-re" to="bf8fe-0"/>
<connection from="c21cc-0-re" to="4d334-0-re"/>
<connection from="c21cc-0-re" to="bf8fe-0-re"/>
<!-- Point f23a7 8f4e4155-597b-44ae-8dac-b922844f23a7 -->
<connection from="bf8fe-4" to="1ddd9-0"/>
<connection from="bf8fe-4" to="1ddd9-0-re"/>
<connection from="bf8fe-4-re" to="1ddd9-0"/>
<connection from="bf8fe-4-re" to="1ddd9-0-re"/>
<connection from="3f3ab-0" to="1ddd9-0"/>
<connection from="3f3ab-0" to="1ddd9-0-re"/>
<connection from="3f3ab-0-re" to="1ddd9-0"/>
<connection from="3f3ab-0-re" to="1ddd9-0-re"/>
<connection from="1ddd9-0" to="bf8fe-4"/>
<connection from="1ddd9-0" to="3f3ab-0"/>
<connection from="1ddd9-0" to="bf8fe-4-re"/>
<connection from="1ddd9-0" to="3f3ab-0-re"/>
<connection from="1ddd9-0-re" to="bf8fe-4"/>
<connection from="1ddd9-0-re" to="3f3ab-0"/>
<connection from="1ddd9-0-re" to="bf8fe-4-re"/>
<connection from="1ddd9-0-re" to="3f3ab-0-re"/>
<!-- Point 1ea7a 04b743ff-f788-447f-b5ec-9b9b9721ea7a -->
<connection from="a01a0-0" to="5fecb-0"/>
<connection from="a01a0-0" to="5fecb-0-re"/>
<connection from="a01a0-0-re" to="5fecb-0"/>
<connection from="a01a0-0-re" to="5fecb-0-re"/>
<connection from="4bdd3-16" to="5fecb-0"/>
<connection from="4bdd3-16" to="5fecb-0-re"/>
<connection from="4bdd3-16-re" to="5fecb-0"/>
<connection from="4bdd3-16-re" to="5fecb-0-re"/>
<connection from="5fecb-0" to="a01a0-0"/>
<connection from="5fecb-0" to="4bdd3-16"/>
<connection from="5fecb-0" to="a01a0-0-re"/>
<connection from="5fecb-0" to="4bdd3-16-re"/>
<connection from="5fecb-0-re" to="a01a0-0"/>
<connection from="5fecb-0-re" to="4bdd3-16"/>
<connection from="5fecb-0-re" to="a01a0-0-re"/>
<connection from="5fecb-0-re" to="4bdd3-16-re"/>

<!-- Point c031e 7a9dd3c4-1c28-4642-ad80-c8dfaedc031e -->
<connection from="83853-4" to="2311c-0"/>
<connection from="83853-4" to="2311c-0-re"/>
<connection from="83853-4-re" to="2311c-0"/>
<connection from="83853-4-re" to="2311c-0-re"/>
<connection from="2acde-0" to="2311c-0"/>
<connection from="2acde-0" to="2311c-0-re"/>
<connection from="2acde-0-re" to="2311c-0"/>
<connection from="2acde-0-re" to="2311c-0-re"/>
<connection from="2311c-0" to="83853-4"/>
<connection from="2311c-0" to="2acde-0"/>
<connection from="2311c-0" to="83853-4-re"/>
<connection from="2311c-0" to="2acde-0-re"/>
<connection from="2311c-0-re" to="83853-4"/>
<connection from="2311c-0-re" to="2acde-0"/>
<connection from="2311c-0-re" to="83853-4-re"/>
<connection from="2311c-0-re" to="2acde-0-re"/>

<!-- Point d2c8d 2c27462b-be00-4f57-9a37-8b0be23d2c8d -->
<connection from="2311c-4" to="cf2c5-0"/>
<connection from="2311c-4" to="cf2c5-0-re"/>
<connection from="2311c-4-re" to="cf2c5-0"/>
<connection from="2311c-4-re" to="cf2c5-0-re"/>
<connection from="05327-0" to="cf2c5-0"/>
<connection from="05327-0" to="cf2c5-0-re"/>
<connection from="05327-0-re" to="cf2c5-0"/>
<connection from="05327-0-re" to="cf2c5-0-re"/>
<connection from="cf2c5-0" to="2311c-4"/>
<connection from="cf2c5-0" to="05327-0"/>
<connection from="cf2c5-0" to="2311c-4-re"/>
<connection from="cf2c5-0" to="05327-0-re"/>
<connection from="cf2c5-0-re" to="2311c-4"/>
<connection from="cf2c5-0-re" to="05327-0"/>
<connection from="cf2c5-0-re" to="2311c-4-re"/>
<connection from="cf2c5-0-re" to="05327-0-re"/>
<!-- Point 56416 c439fdd6-43a0-4863-9cdf-343d2e156416 -->
<connection from="d81a9-0" to="12d08-0"/>
<connection from="d81a9-0" to="12d08-0-re"/>
<connection from="d81a9-0-re" to="12d08-0"/>
<connection from="d81a9-0-re" to="12d08-0-re"/>
<connection from="cf2c5-4" to="12d08-0"/>
<connection from="cf2c5-4" to="12d08-0-re"/>
<connection from="cf2c5-4-re" to="12d08-0"/>
<connection from="cf2c5-4-re" to="12d08-0-re"/>
<connection from="12d08-0" to="d81a9-0"/>
<connection from="12d08-0" to="cf2c5-4"/>
<connection from="12d08-0" to="d81a9-0-re"/>
<connection from="12d08-0" to="cf2c5-4-re"/>
<connection from="12d08-0-re" to="d81a9-0"/>
<connection from="12d08-0-re" to="cf2c5-4"/>
<connection from="12d08-0-re" to="d81a9-0-re"/>
<connection from="12d08-0-re" to="cf2c5-4-re"/>
<!-- Point e9281 36944dd1-2a95-41a6-a5bf-a8192d1e9281 -->
<connection from="6a803-0" to="12d08-0"/>
<connection from="6a803-0" to="12d08-0-re"/>
<connection from="6a803-0-re" to="12d08-0"/>
<connection from="6a803-0-re" to="12d08-0-re"/>
<connection from="e88c2-0" to="12d08-0"/>
<connection from="e88c2-0" to="12d08-0-re"/>
<connection from="e88c2-0-re" to="12d08-0"/>
<connection from="e88c2-0-re" to="12d08-0-re"/>
<connection from="12d08-0" to="6a803-0"/>
<connection from="12d08-0" to="e88c2-0"/>
<connection from="12d08-0" to="6a803-0-re"/>
<connection from="12d08-0" to="e88c2-0-re"/>
<connection from="12d08-0-re" to="6a803-0"/>
<connection from="12d08-0-re" to="e88c2-0"/>
<connection from="12d08-0-re" to="6a803-0-re"/>
<connection from="12d08-0-re" to="e88c2-0-re"/>
<!-- Point a555c e510a90a-36c1-423e-bed8-ab414b8a555c -->
<connection from="357ea-0" to="2a63d-0"/>
<connection from="357ea-0" to="2a63d-0-re"/>
<connection from="357ea-0-re" to="2a63d-0"/>
<connection from="357ea-0-re" to="2a63d-0-re"/>
<connection from="6a803-4" to="2a63d-0"/>
<connection from="6a803-4" to="2a63d-0-re"/>
<connection from="6a803-4-re" to="2a63d-0"/>
<connection from="6a803-4-re" to="2a63d-0-re"/>
<connection from="2a63d-0" to="357ea-0"/>
<connection from="2a63d-0" to="6a803-4"/>
<connection from="2a63d-0" to="357ea-0-re"/>
<connection from="2a63d-0" to="6a803-4-re"/>
<connection from="2a63d-0-re" to="357ea-0"/>
<connection from="2a63d-0-re" to="6a803-4"/>
<connection from="2a63d-0-re" to="357ea-0-re"/>
<connection from="2a63d-0-re" to="6a803-4-re"/>
<!-- Point 81f64 8260e821-9bf4-4c39-bfed-baafa2a81f64 -->
<connection from="058cf-0" to="2a63d-4"/>
<connection from="058cf-0" to="2a63d-4-re"/>
<connection from="058cf-0-re" to="2a63d-4"/>
<connection from="058cf-0-re" to="2a63d-4-re"/>
<connection from="1d58b-0" to="2a63d-4"/>
<connection from="1d58b-0" to="2a63d-4-re"/>
<connection from="1d58b-0-re" to="2a63d-4"/>
<connection from="1d58b-0-re" to="2a63d-4-re"/>
<connection from="2a63d-4" to="058cf-0"/>
<connection from="2a63d-4" to="1d58b-0"/>
<connection from="2a63d-4" to="058cf-0-re"/>
<connection from="2a63d-4" to="1d58b-0-re"/>
<connection from="2a63d-4-re" to="058cf-0"/>
<connection from="2a63d-4-re" to="1d58b-0"/>
<connection from="2a63d-4-re" to="058cf-0-re"/>
<connection from="2a63d-4-re" to="1d58b-0-re"/>
<!-- Point 23146 9457638b-940d-4eca-901e-fe8ec7323146 -->
<connection from="11e68-0" to="85a7c-0"/>
<connection from="11e68-0" to="85a7c-0-re"/>
<connection from="11e68-0-re" to="85a7c-0"/>
<connection from="11e68-0-re" to="85a7c-0-re"/>
<connection from="058cf-4" to="85a7c-0"/>
<connection from="058cf-4" to="85a7c-0-re"/>
<connection from="058cf-4-re" to="85a7c-0"/>
<connection from="058cf-4-re" to="85a7c-0-re"/>
<connection from="85a7c-0" to="11e68-0"/>
<connection from="85a7c-0" to="058cf-4"/>
<connection from="85a7c-0" to="11e68-0-re"/>
<connection from="85a7c-0" to="058cf-4-re"/>
<connection from="85a7c-0-re" to="11e68-0"/>
<connection from="85a7c-0-re" to="058cf-4"/>
<connection from="85a7c-0-re" to="11e68-0-re"/>
<connection from="85a7c-0-re" to="058cf-4-re"/>
<!-- Point 00983 341ff0b9-f41d-4683-8338-d6825b400983 -->
<connection from="85a7c-4" to="d31ff-0"/>
<connection from="85a7c-4" to="d31ff-0-re"/>
<connection from="85a7c-4-re" to="d31ff-0"/>
<connection from="85a7c-4-re" to="d31ff-0-re"/>
<connection from="ea624-0" to="d31ff-0"/>
<connection from="ea624-0" to="d31ff-0-re"/>
<connection from="ea624-0-re" to="d31ff-0"/>
<connection from="ea624-0-re" to="d31ff-0-re"/>
<connection from="d31ff-0" to="85a7c-4"/>
<connection from="d31ff-0" to="ea624-0"/>
<connection from="d31ff-0" to="85a7c-4-re"/>
<connection from="d31ff-0" to="ea624-0-re"/>
<connection from="d31ff-0-re" to="85a7c-4"/>
<connection from="d31ff-0-re" to="ea624-0"/>
<connection from="d31ff-0-re" to="85a7c-4-re"/>
<connection from="d31ff-0-re" to="ea624-0-re"/>
<!-- Point fbb17 0b873500-83a7-4640-905f-0978d63fbb17 -->
<connection from="5814a-0" to="3fb01-0"/>
<connection from="5814a-0" to="3fb01-0-re"/>
<connection from="5814a-0-re" to="3fb01-0"/>
<connection from="5814a-0-re" to="3fb01-0-re"/>
<connection from="c6956-0" to="3fb01-0"/>
<connection from="c6956-0" to="3fb01-0-re"/>
<connection from="c6956-0-re" to="3fb01-0"/>
<connection from="c6956-0-re" to="3fb01-0-re"/>
<connection from="3fb01-0" to="5814a-0"/>
<connection from="3fb01-0" to="c6956-0"/>
<connection from="3fb01-0" to="5814a-0-re"/>
<connection from="3fb01-0" to="c6956-0-re"/>
<connection from="3fb01-0-re" to="5814a-0"/>
<connection from="3fb01-0-re" to="c6956-0"/>
<connection from="3fb01-0-re" to="5814a-0-re"/>
<connection from="3fb01-0-re" to="c6956-0-re"/>
<!-- Point 4e443 5b1a20d1-70ac-41e3-b29a-c81f6684e443 -->
<connection from="5814a-4" to="d5851-0"/>
<connection from="5814a-4" to="d5851-0-re"/>
<connection from="5814a-4-re" to="d5851-0"/>
<connection from="5814a-4-re" to="d5851-0-re"/>
<connection from="9b1a0-0" to="d5851-0"/>
<connection from="9b1a0-0" to="d5851-0-re"/>
<connection from="9b1a0-0-re" to="d5851-0"/>
<connection from="9b1a0-0-re" to="d5851-0-re"/>
<connection from="d5851-0" to="5814a-4"/>
<connection from="d5851-0" to="9b1a0-0"/>
<connection from="d5851-0" to="5814a-4-re"/>
<connection from="d5851-0" to="9b1a0-0-re"/>
<connection from="d5851-0-re" to="5814a-4"/>
<connection from="d5851-0-re" to="9b1a0-0"/>
<connection from="d5851-0-re" to="5814a-4-re"/>
<connection from="d5851-0-re" to="9b1a0-0-re"/>
<!-- Point 3f849 f071b4fe-64fa-4c92-9b63-d2b285e3f849 -->
<connection from="4d334-4" to="d5851-0"/>
<connection from="4d334-4" to="d5851-0-re"/>
<connection from="4d334-4-re" to="d5851-0"/>
<connection from="4d334-4-re" to="d5851-0-re"/>
<connection from="35e8c-0" to="d5851-0"/>
<connection from="35e8c-0" to="d5851-0-re"/>
<connection from="35e8c-0-re" to="d5851-0"/>
<connection from="35e8c-0-re" to="d5851-0-re"/>
<connection from="d5851-0" to="4d334-4"/>
<connection from="d5851-0" to="35e8c-0"/>
<connection from="d5851-0" to="4d334-4-re"/>
<connection from="d5851-0" to="35e8c-0-re"/>
<connection from="d5851-0-re" to="4d334-4"/>
<connection from="d5851-0-re" to="35e8c-0"/>
<connection from="d5851-0-re" to="4d334-4-re"/>
<connection from="d5851-0-re" to="35e8c-0-re"/>
<!-- Point 59193 02f3fcb8-52a0-4801-b7ad-7b37de959193 -->
<connection from="922ca-0" to="35e8c-0"/>
<connection from="922ca-0" to="35e8c-0-re"/>
<connection from="922ca-0-re" to="35e8c-0"/>
<connection from="922ca-0-re" to="35e8c-0-re"/>
<connection from="00f91-0" to="35e8c-0"/>
<connection from="00f91-0" to="35e8c-0-re"/>
<connection from="00f91-0-re" to="35e8c-0"/>
<connection from="00f91-0-re" to="35e8c-0-re"/>
<connection from="35e8c-0" to="922ca-0"/>
<connection from="35e8c-0" to="00f91-0"/>
<connection from="35e8c-0" to="922ca-0-re"/>
<connection from="35e8c-0" to="00f91-0-re"/>
<connection from="35e8c-0-re" to="922ca-0"/>
<connection from="35e8c-0-re" to="00f91-0"/>
<connection from="35e8c-0-re" to="922ca-0-re"/>
<connection from="35e8c-0-re" to="00f91-0-re"/>
<!-- Point 14b10 9ffa3b6c-fef7-43b5-8b4f-988c11d14b10 -->
<connection from="357ea-4" to="65447-0"/>
<connection from="357ea-4" to="65447-0-re"/>
<connection from="357ea-4-re" to="65447-0"/>
<connection from="357ea-4-re" to="65447-0-re"/>
<connection from="33b88-0" to="65447-0"/>
<connection from="33b88-0" to="65447-0-re"/>
<connection from="33b88-0-re" to="65447-0"/>
<connection from="33b88-0-re" to="65447-0-re"/>
<connection from="65447-0" to="357ea-4"/>
<connection from="65447-0" to="33b88-0"/>
<connection from="65447-0" to="357ea-4-re"/>
<connection from="65447-0" to="33b88-0-re"/>
<connection from="65447-0-re" to="357ea-4"/>
<connection from="65447-0-re" to="33b88-0"/>
<connection from="65447-0-re" to="357ea-4-re"/>
<connection from="65447-0-re" to="33b88-0-re"/>
<!-- Point ff791 20f50fda-2802-4d6d-871d-5481bd6ff791 -->
<connection from="8916f-0" to="65447-0"/>
<connection from="8916f-0" to="65447-0-re"/>
<connection from="8916f-0-re" to="65447-0"/>
<connection from="8916f-0-re" to="65447-0-re"/>
<connection from="e88c2-4" to="65447-0"/>
<connection from="e88c2-4" to="65447-0-re"/>
<connection from="e88c2-4-re" to="65447-0"/>
<connection from="e88c2-4-re" to="65447-0-re"/>
<connection from="65447-0" to="8916f-0"/>
<connection from="65447-0" to="e88c2-4"/>
<connection from="65447-0" to="8916f-0-re"/>
<connection from="65447-0" to="e88c2-4-re"/>
<connection from="65447-0-re" to="8916f-0"/>
<connection from="65447-0-re" to="e88c2-4"/>
<connection from="65447-0-re" to="8916f-0-re"/>
<connection from="65447-0-re" to="e88c2-4-re"/>
<!-- Point 1a041 3ad97000-fa91-4d79-b075-5fc16251a041 -->
<connection from="29ab9-0" to="8d797-0"/>
<connection from="29ab9-0" to="8d797-0-re"/>
<connection from="29ab9-0-re" to="8d797-0"/>
<connection from="29ab9-0-re" to="8d797-0-re"/>
<connection from="8e37a-0" to="8d797-0"/>
<connection from="8e37a-0" to="8d797-0-re"/>
<connection from="8e37a-0-re" to="8d797-0"/>
<connection from="8e37a-0-re" to="8d797-0-re"/>
<connection from="8d797-0" to="29ab9-0"/>
<connection from="8d797-0" to="8e37a-0"/>
<connection from="8d797-0" to="29ab9-0-re"/>
<connection from="8d797-0" to="8e37a-0-re"/>
<connection from="8d797-0-re" to="29ab9-0"/>
<connection from="8d797-0-re" to="8e37a-0"/>
<connection from="8d797-0-re" to="29ab9-0-re"/>
<connection from="8d797-0-re" to="8e37a-0-re"/>
<!-- Point f04ab 97097990-54d5-4e26-920e-f5e54d4f04ab -->
<connection from="29ab9-4" to="30fa8-0"/>
<connection from="29ab9-4" to="30fa8-0-re"/>
<connection from="29ab9-4-re" to="30fa8-0"/>
<connection from="29ab9-4-re" to="30fa8-0-re"/>
<connection from="57450-0" to="30fa8-0"/>
<connection from="57450-0" to="30fa8-0-re"/>
<connection from="57450-0-re" to="30fa8-0"/>