<edges>
<!-- Track 1c2e717a-7321-4571-bd40-635e6998cedf -->
<edge id="8cedf-0" from="92a2f" to="1c2e717a-7321-4571-bd40-635e6998cedf-km-25-gegen" shape="-2502198.1259712474,3467432.6135298666 -2502222.669270449,3467437.370258187" priority="-1" numLanes="1" speed="110.0" allow="rail rail_electric" spreadType="center" />
<edge id="8cedf-0-re" from="1c2e717a-7321-4571-bd40-635e6998cedf-km-25-gegen" to="92a2f" shape="-2502222.669270449,3467437.370258187 -2502198.1259712474,3467432.6135298666" priority="-1" numLanes="1" speed="110.0" allow="rail rail_electric" spreadType="center" />
<!-- Track 1c2e717a-7321-4571-bd40-635e6998cedf -->
<edge id="8cedf-1" from="1c2e717a-7321-4571-bd40-635e6998cedf-km-25-gegen" to="1c2e717a-7321-4571-bd40-635e6998cedf-km-45-in" shape="-2502222.669270449,3467437.370258187 -2502242.30390981,3467441.1756408433" priority="-1" numLanes="1" speed="110.0" allow="rail rail_electric" spreadType="center" />
<edge id="8cedf-1-re" from="1c2e717a-7321-4571-bd40-635e6998cedf-km-45-in" to="1c2e717a-7321-4571-bd40-635e6998cedf-km-25-gegen" shape="-2502242.30390981,3467441.1756408433 -2502222.669270449,3467437.370258187" priority="-1" numLanes="1" speed="110.0" allow="rail rail_electric" spreadType="center" />
<!-- Track 1c2e717a-7321-4571-bd40-635e6998cedf -->
<edge id="8cedf-2" from="1c2e717a-7321-4571-bd40-635e6998cedf-km-45-in" to="1c2e717a-7321-4571-bd40-635e6998cedf-km-301.5762856547864-gegen" shape="-2502242.30390981,3467441.1756408433 -2502326.879854113,3467457.567275325 -2502493.9023487107,3467491.459708974" priority="-1" numLanes="1" speed="110.0" allow="rail rail_electric" spreadType="center" />
<edge id="8cedf-2-re" from="1c2e717a-7321-4571-bd40-635e6998cedf-km-301.5762856547864-gegen" to="1c2e717a-7321-4571-bd40-635e6998cedf-km-45-in" shape="-2502493.9023487107,3467491.459708974 -2502326.879854113,3467457.567275325 -2502242.30390981,3467441.1756408433" priority="-1" numLanes="1" speed="110.0" allow="rail rail_electric" spreadType="center" />
<!-- Track 1c2e717a-7321-4571-bd40-635e6998cedf -->
<edge id="8cedf-3" from="1c2e717a-7321-4571-bd40-635e6998cedf-km-301.5762856547864-gegen" to="1c2e717a-7321-4571-bd40-635e6998cedf-km-321.5762856547864-in" shape="-2502493.9023487107,3467491.459708974 -2502513.502873321,3467495.4370743074" priority="-1" numLanes="1" speed="110.0" allow="rail rail_electric" spreadType="center" />
<edge id="8cedf-3-re" from="1c2e717a-7321-4571-bd40-635e6998cedf-km-321.5762856547864-in" to="1c2e717a-7321-4571-bd40-635e6998cedf-km-301.5762856547864-gegen" shape="-2502513.502873321,3467495.4370743074 -2502493.9023487107,3467491.459708974" priority="-1" numLanes="1" speed="110.0" allow="rail rail_electric" spreadType="center" />
<!-- Track 1c2e717a-7321-4571-bd40-635e6998cedf -->
<edge id="8cedf-4" from="1c2e717a-7321-4571-bd40-635e6998cedf-km-321.5762856547864-in" to="1c87c" shape="-2502513.502873321,3467495.4370743074 -2502538.003529084,3467500.4087809734" priority="-1" numLanes="1" speed="110.0" allow="rail rail_electric" spreadType="center" />
<edge id="8cedf-4-re" from="1c87c" to="1c2e717a-7321-4571-bd40-635e6998cedf-km-321.5762856547864-in" shape="-2502538.003529084,3467500.4087809734 -2502513.502873321,3467495.4370743074" priority="-1" numLanes="1" speed="110.0" allow="rail rail_electric" spreadType="center" />
<!-- Track 12435233-a111-4781-b442-1d1001705fe3 -->
<edge id="05fe3-0" from="92a2f" to="12435233-a111-4781-b442-1d1001705fe3-km-25-gegen" shape="-2502198.1259712474,3467432.6135298666 -2502173.6116686147,3467427.7095553116" priority="-1" numLanes="1" speed="110.0" allow="rail rail_electric" spreadType="center" />
<edge id="05fe3-0-re" from="12435233-a111-4781-b442-1d1001705fe3-km-25-gegen" to="92a2f" shape="-2502173.6116686147,3467427.7095553116 -2502198.1259712474,3467432.6135298666" priority="-1" numLanes="1" speed="110.0" allow="rail rail_electric" spreadType="center" />
<!-- Track 12435233-a111-4781-b442-1d1001705fe3 -->
<edge id="05fe3-1" from="12435233-a111-4781-b442-1d1001705fe3-km-25-gegen" to="12435233-a111-4781-b442-1d1001705fe3-km-45-in" shape="-2502173.6116686147,3467427.7095553116 -2502154.000226509,3467423.7863756674" priority="-1" numLanes="1" speed="110.0" allow="rail rail_electric" spreadType="center" />
<edge id="05fe3-1-re" from="12435233-a111-4781-b442-1d1001705fe3-km-45-in" to="12435233-a111-4781-b442-1d1001705fe3-km-25-gegen" shape="-2502154.000226509,3467423.7863756674 -2502173.6116686147,3467427.7095553116" priority="-1" numLanes="1" speed="110.0" allow="rail rail_electric" spreadType="center" />
<!-- Track 12435233-a111-4781-b442-1d1001705fe3 -->
<edge id="05fe3-2" from="12435233-a111-4781-b442-1d1001705fe3-km-45-in" to="12435233-a111-4781-b442-1d1001705fe3-km-145.5616561823125-gegen" shape="-2502154.000226509,3467423.7863756674 -2502055.392271593,3467404.0603035414" priority="-1" numLanes="1" speed="110.0" allow="rail rail_electric" spreadType="center" />
<edge id="05fe3-2-re" from="12435233-a111-4781-b442-1d1001705fe3-km-145.5616561823125-gegen" to="12435233-a111-4781-b442-1d1001705fe3-km-45-in" shape="-2502055.392271593,3467404.0603035414 -2502154.000226509,3467423.7863756674" priority="-1" numLanes="1" speed="110.0" allow="rail rail_electric" spreadType="center" />
<!-- Track 12435233-a111-4781-b442-1d1001705fe3 -->
<edge id="05fe3-3" from="12435233-a111-4781-b442-1d1001705fe3-km-145.5616561823125-gegen" to="12435233-a111-4781-b442-1d1001705fe3-km-165.5616561823125-in" shape="-2502055.392271593,3467404.0603035414 -2502035.7808294874,3467400.137123897" priority="-1" numLanes="1" speed="110.0" allow="rail rail_electric" spreadType="center" />
<edge id="05fe3-3-re" from="12435233-a111-4781-b442-1d1001705fe3-km-165.5616561823125-in" to="12435233-a111-4781-b442-1d1001705fe3-km-145.5616561823125-gegen" shape="-2502035.7808294874,3467400.137123897 -2502055.392271593,3467404.0603035414" priority="-1" numLanes="1" speed="110.0" allow="rail rail_electric" spreadType="center" />
<!-- Track 12435233-a111-4781-b442-1d1001705fe3 -->
<edge id="05fe3-4" from="12435233-a111-4781-b442-1d1001705fe3-km-165.5616561823125-in" to="fb5fc" shape="-2502035.7808294874,3467400.137123897 -2502011.2665268546,3467395.2331493422" priority="-1" numLanes="1" speed="110.0" allow="rail rail_electric" spreadType="center" />
<edge id="05fe3-4-re" from="fb5fc" to="12435233-a111-4781-b442-1d1001705fe3-km-165.5616561823125-in" shape="-2502011.2665268546,3467395.2331493422 -2502035.7808294874,3467400.137123897" priority="-1" numLanes="1" speed="110.0" allow="rail rail_electric" spreadType="center" />
<!-- Track 9101bb9d-df03-450d-825d-7ecc48a1322f -->
<edge id="1322f-0" from="92a2f" to="9101bb9d-df03-450d-825d-7ecc48a1322f-km-25-gegen" shape="-2502198.1259712474,3467432.6135298666 -2502173.3051357637,3467429.6258675884" priority="-1" numLanes="1" speed="110.0" allow="rail rail_electric" spreadType="center" />
<edge id="1322f-0-re" from="9101bb9d-df03-450d-825d-7ecc48a1322f-km-25-gegen" to="92a2f" shape="-2502173.3051357637,3467429.6258675884 -2502198.1259712474,3467432.6135298666" priority="-1" numLanes="1" speed="110.0" allow="rail rail_electric" spreadType="center" />
<!-- Track 9101bb9d-df03-450d-825d-7ecc48a1322f -->
<edge id="1322f-1" from="9101bb9d-df03-450d-825d-7ecc48a1322f-km-25-gegen" to="9101bb9d-df03-450d-825d-7ecc48a1322f-km-45-in" shape="-2502173.3051357637,3467429.6258675884 -2502153.4484673766,3467427.235737766" priority="-1" numLanes="1" speed="110.0" allow="rail rail_electric" spreadType="center" />
<edge id="1322f-1-re" from="9101bb9d-df03-450d-825d-7ecc48a1322f-km-45-in" to="9101bb9d-df03-450d-825d-7ecc48a1322f-km-25-gegen" shape="-2502153.4484673766,3467427.235737766 -2502173.3051357637,3467429.6258675884" priority="-1" numLanes="1" speed="110.0" allow="rail rail_electric" spreadType="center" />
<!-- Track 9101bb9d-df03-450d-825d-7ecc48a1322f -->
<edge id="1322f-2" from="9101bb9d-df03-450d-825d-7ecc48a1322f-km-45-in" to="9101bb9d-df03-450d-825d-7ecc48a1322f-km-832.2588211144425-gegen" shape="-2502153.4484673766,3467427.235737766 -2501986.5440240223,3467407.1455957647 -2501941.394594235,3467406.669230707 -2501900.14020605,3467408.084832847 -2501830.2628213717,3467412.3299855366 -2501757.781161777,3467419.529616246 -2501699.9119592384,3467418.698338378 -2501637.2374989176,3467415.157012349 -2501580.245985288,3467407.526348047 -2501372.6098940773,3467366.1183687863" priority="-1" numLanes="1" speed="110.0" allow="rail rail_electric" spreadType="center" />
<edge id="1322f-2-re" from="9101bb9d-df03-450d-825d-7ecc48a1322f-km-832.2588211144425-gegen" to="9101bb9d-df03-450d-825d-7ecc48a1322f-km-45-in" shape="-2501372.6098940773,3467366.1183687863 -2501580.245985288,3467407.526348047 -2501637.2374989176,3467415.157012349 -2501699.9119592384,3467418.698338378 -2501757.781161777,3467419.529616246 -2501830.2628213717,3467412.3299855366 -2501900.14020605,3467408.084832847 -2501941.394594235,3467406.669230707 -2501986.5440240223,3467407.1455957647 -2502153.4484673766,3467427.235737766" priority="-1" numLanes="1" speed="110.0" allow="rail rail_electric" spreadType="center" />
<!-- Track 9101bb9d-df03-450d-825d-7ecc48a1322f -->
<edge id="1322f-3" from="9101bb9d-df03-450d-825d-7ecc48a1322f-km-832.2588211144425-gegen" to="9101bb9d-df03-450d-825d-7ecc48a1322f-km-852.2588211144425-in" shape="-2501372.6098940773,3467366.1183687863 -2501352.99611748,3467362.206877052" priority="-1" numLanes="1" speed="110.0" allow="rail rail_electric" spreadType="center" />
<edge id="1322f-3-re" from="9101bb9d-df03-450d-825d-7ecc48a1322f-km-852.2588211144425-in" to="9101bb9d-df03-450d-825d-7ecc48a1322f-km-832.2588211144425-gegen" shape="-2501352.99611748,3467362.206877052 -2501372.6098940773,3467366.1183687863" priority="-1" numLanes="1" speed="110.0" allow="rail rail_electric" spreadType="center" />
<!-- Track 9101bb9d-df03-450d-825d-7ecc48a1322f -->
<edge id="1322f-4" from="9101bb9d-df03-450d-825d-7ecc48a1322f-km-852.2588211144425-in" to="6793c" shape="-2501352.99611748,3467362.206877052 -2501328.4788967334,3467357.3175123837" priority="-1" numLanes="1" speed="110.0" allow="rail rail_electric" spreadType="center" />
<edge id="1322f-4-re" from="6793c" to="9101bb9d-df03-450d-825d-7ecc48a1322f-km-852.2588211144425-in" shape="-2501328.4788967334,3467357.3175123837 -2501352.99611748,3467362.206877052" priority="-1" numLanes="1" speed="110.0" allow="rail rail_electric" spreadType="center" />
<!-- Track c73a7f7d-7593-46cd-bf88-e825ac730da4 -->
<edge id="30da4-0" from="fb5fc" to="c73a7f7d-7593-46cd-bf88-e825ac730da4-km-25-gegen" shape="-2502011.2665268546,3467395.2331493422 -2501986.4846162554,3467391.938167242" priority="-1" numLanes="1" speed="110.0" allow="rail rail_electric" spreadType="center" />
<edge id="30da4-0-re" from="c73a7f7d-7593-46cd-bf88-e825ac730da4-km-25-gegen" to="fb5fc" shape="-2501986.4846162554,3467391.938167242 -2502011.2665268546,3467395.2331493422" priority="-1" numLanes="1" speed="110.0" allow="rail rail_electric" spreadType="center" />
<!-- Track c73a7f7d-7593-46cd-bf88-e825ac730da4 -->
<edge id="30da4-1" from="c73a7f7d-7593-46cd-bf88-e825ac730da4-km-25-gegen" to="c73a7f7d-7593-46cd-bf88-e825ac730da4-km-45-in" shape="-2501986.4846162554,3467391.938167242 -2501966.6590877757,3467389.3021815615" priority="-1" numLanes="1" speed="110.0" allow="rail rail_electric" spreadType="center" />
<edge id="30da4-1-re" from="c73a7f7d-7593-46cd-bf88-e825ac730da4-km-45-in" to="c73a7f7d-7593-46cd-bf88-e825ac730da4-km-25-gegen" shape="-2501966.6590877757,3467389.3021815615 -2501986.4846162554,3467391.938167242" priority="-1" numLanes="1" speed="110.0" allow="rail rail_electric" spreadType="center" />
<!-- Track c73a7f7d-7593-46cd-bf88-e825ac730da4 -->
<edge id="30da4-2" from="c73a7f7d-7593-46cd-bf88-e825ac730da4-km-45-in" to="c73a7f7d-7593-46cd-bf88-e825ac730da4-km-768.1457216628645-gegen" shape="-2501966.6590877757,3467389.3021815615 -2501902.187891895,3467380.730145294 -2501866.152929621,3467378.21362713 -2501673.0765554016,3467367.3538590707 -2501592.416926997,3467359.140942909 -2501551.447303158,3467353.074182581 -2501505.253120913,3467345.780980693 -2501250.8801331185,3467295.249607361" priority="-1" numLanes="1" speed="110.0" allow="rail rail_electric" spreadType="center" />
<edge id="30da4-2-re" from="c73a7f7d-7593-46cd-bf88-e825ac730da4-km-768.1457216628645-gegen" to="c73a7f7d-7593-46cd-bf88-e825ac730da4-km-45-in" shape="-2501250.8801331185,3467295.249607361 -2501505.253120913,3467345.780980693 -2501551.447303158,3467353.074182581 -2501592.416926997,3467359.140942909 -2501673.0765554016,3467367.3538590707 -2501866.152929621,3467378.21362713 -2501902.187891895,3467380.730145294 -2501966.6590877757,3467389.3021815615" priority="-1" numLanes="1" speed="110.0" allow="rail rail_electric" spreadType="center" />
<!-- Track c73a7f7d-7593-46cd-bf88-e825ac730da4 -->
<edge id="30da4-3" from="c73a7f7d-7593-46cd-bf88-e825ac730da4-km-768.1457216628645-gegen" to="c73a7f7d-7593-46cd-bf88-e825ac730da4-km-788.1457216628645-in" shape="-2501250.8801331185,3467295.249607361 -2501231.263445984,3467291.352738634" priority="-1" numLanes="1" speed="110.0" allow="rail rail_electric" spreadType="center" />
<edge id="30da4-3-re" from="c73a7f7d-7593-46cd-bf88-e825ac730da4-km-788.1457216628645-in" to="c73a7f7d-7593-46cd-bf88-e825ac730da4-km-768.1457216628645-gegen" shape="-2501231.263445984,3467291.352738634 -2501250.8801331185,3467295.249607361" priority="-1" numLanes="1" speed="110.0" allow="rail rail_electric" spreadType="center" />
<!-- Track c73a7f7d-7593-46cd-bf88-e825ac730da4 -->
<edge id="30da4-4" from="c73a7f7d-7593-46cd-bf88-e825ac730da4-km-788.1457216628645-in" to="fe862" shape="-2501231.263445984,3467291.352738634 -2501206.7425870663,3467286.4816527255" priority="-1" numLanes="1" speed="110.0" allow="rail rail_electric" spreadType="center" />
<edge id="30da4-4-re" from="fe862" to="c73a7f7d-7593-46cd-bf88-e825ac730da4-km-788.1457216628645-in" shape="-2501206.7425870663,3467286.4816527255 -2501231.263445984,3467291.352738634" priority="-1" numLanes="1" speed="110.0" allow="rail rail_electric" spreadType="center" />
<!-- Track eb365626-061a-4e79-8855-4dff6d5b3306 -->
<edge id="b3306-0" from="fb5fc" to="eb365626-061a-4e79-8855-4dff6d5b3306-km-25-gegen" shape="-2502011.2665268546,3467395.2331493422 -2501986.867727038,3467389.7835101327" priority="-1" numLanes="1" speed="110.0" allow="rail rail_electric" spreadType="center" />
<edge id="b3306-0-re" from="eb365626-061a-4e79-8855-4dff6d5b3306-km-25-gegen" to="fb5fc" shape="-2501986.867727038,3467389.7835101327 -2502011.2665268546,3467395.2331493422" priority="-1" numLanes="1" speed="110.0" allow="rail rail_electric" spreadType="center" />
<!-- Track eb365626-061a-4e79-8855-4dff6d5b3306 -->
<edge id="b3306-1" from="eb365626-061a-4e79-8855-4dff6d5b3306-km-25-gegen" to="eb365626-061a-4e79-8855-4dff6d5b3306-km-45-in" shape="-2501986.867727038,3467389.7835101327 -2501967.348687185,3467385.4237987646" priority="-1" numLanes="1" speed="110.0" allow="rail rail_electric" spreadType="center" />
<edge id="b3306-1-re" from="eb365626-061a-4e79-8855-4dff6d5b3306-km-45-in" to="eb365626-061a-4e79-8855-4dff6d5b3306-km-25-gegen" shape="-2501967.348687185,3467385.4237987646 -2501986.867727038,3467389.7835101327" priority="-1" numLanes="1" speed="110.0" allow="rail rail_electric" spreadType="center" />
<!-- Track eb365626-061a-4e79-8855-4dff6d5b3306 -->
<edge id="b3306-2" from="eb365626-061a-4e79-8855-4dff6d5b3306-km-45-in" to="eb365626-061a-4e79-8855-4dff6d5b3306-km-218.52550007798908-gegen" shape="-2501967.348687185,3467385.4237987646 -2501807.904326056,3467349.8108076043 -2501798.030984935,3467347.447093896" priority="-1" numLanes="1" speed="110.0" allow="rail rail_electric" spreadType="center" />
<edge id="b3306-2-re" from="eb365626-061a-4e79-8855-4dff6d5b3306-km-218.52550007798908-gegen" to="eb365626-061a-4e79-8855-4dff6d5b3306-km-45-in" shape="-2501798.030984935,3467347.447093896 -2501807.904326056,3467349.8108076043 -2501967.348687185,3467385.4237987646" priority="-1" numLanes="1" speed="110.0" allow="rail rail_electric" spreadType="center" />
<!-- Track eb365626-061a-4e79-8855-4dff6d5b3306 -->
<edge id="b3306-3" from="eb365626-061a-4e79-8855-4dff6d5b3306-km-218.52550007798908-gegen" to="eb365626-061a-4e79-8855-4dff6d5b3306-km-238.52550007798908-in" shape="-2501798.030984935,3467347.447093896 -2501778.5806097006,3467342.790603453" priority="-1" numLanes="1" speed="110.0" allow="rail rail_electric" spreadType="center" />
<edge id="b3306-3-re" from="eb365626-061a-4e79-8855-4dff6d5b3306-km-238.52550007798908-in" to="eb365626-061a-4e79-8855-4dff6d5b3306-km-218.52550007798908-gegen" shape="-2501778.5806097006,3467342.790603453 -2501798.030984935,3467347.447093896" priority="-1" numLanes="1" speed="110.0" allow="rail rail_electric" spreadType="center" />
<!-- Track eb365626-061a-4e79-8855-4dff6d5b3306 -->
<edge id="b3306-4" from="eb365626-061a-4e79-8855-4dff6d5b3306-km-238.52550007798908-in" to="39cf0" shape="-2501778.5806097006,3467342.790603453 -2501754.2676406577,3467336.9699903987" priority="-1" numLanes="1" speed="110.0" allow="rail rail_electric" spreadType="center" />
<edge id="b3306-4-re" from="39cf0" to="eb365626-061a-4e79-8855-4dff6d5b3306-km-238.52550007798908-in" shape="-2501754.2676406577,3467336.9699903987 -2501778.5806097006,3467342.790603453" priority="-1" numLanes="1" speed="110.0" allow="rail rail_electric" spreadType="center" />
<!-- Track fff05af4-b4f8-459e-a49b-28f4526f3331 -->
<edge id="f3331-0" from="fe862" to="fff05af4-b4f8-459e-a49b-28f4526f3331-km-25-gegen" shape="-2501206.7425870663,3467286.4816527255 -2501182.2386736786,3467281.5260267616" priority="-1" numLanes="1" speed="110.0" allow="rail rail_electric" spreadType="center" />
<edge id="f3331-0-re" from="fff05af4-b4f8-459e-a49b-28f4526f3331-km-25-gegen" to="fe862" shape="-2501182.2386736786,3467281.5260267616 -2501206.7425870663,3467286.4816527255" priority="-1" numLanes="1" speed="110.0" allow="rail rail_electric" spreadType="center" />
<!-- Track fff05af4-b4f8-459e-a49b-28f4526f3331 -->
<edge id="f3331-1" from="fff05af4-b4f8-459e-a49b-28f4526f3331-km-25-gegen" to="fff05af4-b4f8-459e-a49b-28f4526f3331-km-45-in" shape="-2501182.2386736786,3467281.5260267616 -2501162.6355429688,3467277.5615259903" priority="-1" numLanes="1" speed="110.0" allow="rail rail_electric" spreadType="center" />
<edge id="f3331-1-re" from="fff05af4-b4f8-459e-a49b-28f4526f3331-km-45-in" to="fff05af4-b4f8-459e-a49b-28f4526f3331-km-25-gegen" shape="-2501162.6355429688,3467277.5615259903 -2501182.2386736786,3467281.5260267616" priority="-1" numLanes="1" speed="110.0" allow="rail rail_electric" spreadType="center" />
<!-- Track fff05af4-b4f8-459e-a49b-28f4526f3331 -->
<edge id="f3331-2" from="fff05af4-b4f8-459e-a49b-28f4526f3331-km-45-in" to="fff05af4-b4f8-459e-a49b-28f4526f3331-km-149.7673894741766-gegen" shape="-2501162.6355429688,3467277.5615259903 -2501059.947101468,3467256.7940061716" priority="-1" numLanes="1" speed="110.0" allow="rail rail_electric" spreadType="center" />
<edge id="f3331-2-re" from="fff05af4-b4f8-459e-a49b-28f4526f3331-km-149.7673894741766-gegen" to="fff05af4-b4f8-459e-a49b-28f4526f3331-km-45-in" shape="-2501059.947101468,3467256.7940061716 -2501162.6355429688,3467277.5615259903" priority="-1" numLanes="1" speed="110.0" allow="rail rail_electric" spreadType="center" />
<!-- Track fff05af4-b4f8-459e-a49b-28f4526f3331 -->
<edge id="f3331-3" from="fff05af4-b4f8-459e-a49b-28f4526f3331-km-149.7673894741766-gegen" to="fff05af4-b4f8-459e-a49b-28f4526f3331-km-169.7673894741766-in" shape="-2501059.947101468,3467256.7940061716 -2501040.343970758,3467252.8295054003" priority="-1" numLanes="1" speed="110.0" allow="rail rail_electric" spreadType="center" />
<edge id="f3331-3-re" from="fff05af4-b4f8-459e-a49b-28f4526f3331-km-169.7673894741766-in" to="fff05af4-b4f8-459e-a49b-28f4526f3331-km-149.7673894741766-gegen" shape="-2501040.343970758,3467252.8295054003 -2501059.947101468,3467256.7940061716" priority="-1" numLanes="1" speed="110.0" allow="rail rail_electric" spreadType="center" />
<!-- Track fff05af4-b4f8-459e-a49b-28f4526f3331 -->
<edge id="f3331-4" from="fff05af4-b4f8-459e-a49b-28f4526f3331-km-169.7673894741766-in" to="b2c53" shape="-2501040.343970758,3467252.8295054003 -2501015.8400573703,3467247.8738794364" priority="-1" numLanes="1" speed="110.0" allow="rail rail_electric" spreadType="center" />
<edge id="f3331-4-re" from="b2c53" to="fff05af4-b4f8-459e-a49b-28f4526f3331-km-169.7673894741766-in" shape="-2501015.8400573703,3467247.8738794364 -2501040.343970758,3467252.8295054003" priority="-1" numLanes="1" speed="110.0" allow="rail rail_electric" spreadType="center" />
<!-- Track 921274ab-3e6d-4e98-bbb3-c8e82eb72526 -->
<edge id="72526-0" from="fe862" to="921274ab-3e6d-4e98-bbb3-c8e82eb72526-km-25-gegen" shape="-2501206.7425870663,3467286.4816527255 -2501231.489801964,3467290.0278274002" priority="-1" numLanes="1" speed="110.0" allow="rail rail_electric" spreadType="center" />
<edge id="72526-0-re" from="921274ab-3e6d-4e98-bbb3-c8e82eb72526-km-25-gegen" to="fe862" shape="-2501231.489801964,3467290.0278274002 -2501206.7425870663,3467286.4816527255" priority="-1" numLanes="1" speed="110.0" allow="rail rail_electric" spreadType="center" />
<!-- Track 921274ab-3e6d-4e98-bbb3-c8e82eb72526 -->
<edge id="72526-1" from="921274ab-3e6d-4e98-bbb3-c8e82eb72526-km-25-gegen" to="921274ab-3e6d-4e98-bbb3-c8e82eb72526-km-45-in" shape="-2501231.489801964,3467290.0278274002 -2501251.2875738814,3467292.86476714" priority="-1" numLanes="1" speed="110.0" allow="rail rail_electric" spreadType="center" />
<edge id="72526-1-re" from="921274ab-3e6d-4e98-bbb3-c8e82eb72526-km-45-in" to="921274ab-3e6d-4e98-bbb3-c8e82eb72526-km-25-gegen" shape="-2501251.2875738814,3467292.86476714 -2501231.489801964,3467290.0278274002" priority="-1" numLanes="1" speed="110.0" allow="rail rail_electric" spreadType="center" />
<!-- Track 921274ab-3e6d-4e98-bbb3-c8e82eb72526 -->
<edge id="72526-2" from="921274ab-3e6d-4e98-bbb3-c8e82eb72526-km-45-in" to="d61a1" shape="-2501251.2875738814,3467292.86476714 -2501292.2642674847,3467298.736559732 -2501351.8286421327,3467306.9248945564 -2501777.896236745,3467364.0153826177" priority="-1" numLanes="1" speed="110.0" allow="rail rail_electric" spreadType="center" />
<edge id="72526-2-re" from="d61a1" to="921274ab-3e6d-4e98-bbb3-c8e82eb72526-km-45-in" shape="-2501777.896236745,3467364.0153826177 -2501351.8286421327,3467306.9248945564 -2501292.2642674847,3467298.736559732 -2501251.2875738814,3467292.86476714" priority="-1" numLanes="1" speed="110.0" allow="rail rail_electric" spreadType="center" />
<!-- Track bc5a04d6-9c4d-42f1-ad9e-e490bf9dff27 -->
<edge id="dff27-0" from="b2c53" to="bc5a04d6-9c4d-42f1-ad9e-e490bf9dff27-km-25-gegen" shape="-2501015.8400573703,3467247.8738794364 -2500991.319573685,3467243.0009050015" priority="-1" numLanes="1" speed="110.0" allow="rail rail_electric" spreadType="center" />
<edge id="dff27-0-re" from="bc5a04d6-9c4d-42f1-ad9e-e490bf9dff27-km-25-gegen" to="b2c53" shape="-2500991.319573685,3467243.0009050015 -2501015.8400573703,3467247.8738794364" priority="-1" numLanes="1" speed="110.0" allow="rail rail_electric" spreadType="center" />
<!-- Track bc5a04d6-9c4d-42f1-ad9e-e490bf9dff27 -->
<edge id="dff27-1" from="bc5a04d6-9c4d-42f1-ad9e-e490bf9dff27-km-25-gegen" to="bc5a04d6-9c4d-42f1-ad9e-e490bf9dff27-km-45-in" shape="-2500991.319573685,3467243.0009050015 -2500971.703186737,3467239.102525453" priority="-1" numLanes="1" speed="110.0" allow="rail rail_electric" spreadType="center" />
<edge id="dff27-1-re" from="bc5a04d6-9c4d-42f1-ad9e-e490bf9dff27-km-45-in" to="bc5a04d6-9c4d-42f1-ad9e-e490bf9dff27-km-25-gegen" shape="-2500971.703186737,3467239.102525453 -2500991.319573685,3467243.0009050015" priority="-1" numLanes="1" speed="110.0" allow="rail rail_electric" spreadType="center" />
<!-- Track bc5a04d6-9c4d-42f1-ad9e-e490bf9dff27 -->
<edge id="dff27-2" from="bc5a04d6-9c4d-42f1-ad9e-e490bf9dff27-km-45-in" to="bc5a04d6-9c4d-42f1-ad9e-e490bf9dff27-km-664.7733628877847-gegen" shape="-2500971.703186737,3467239.102525453 -2500363.817481409,3467118.2969353376" priority="-1" numLanes="1" speed="110.0" allow="rail rail_electric" spreadType="center" />
<edge id="dff27-2-re" from="bc5a04d6-9c4d-42f1-ad9e-e490bf9dff27-km-664.7733628877847-gegen" to="bc5a04d6-9c4d-42f1-ad9e-e490bf9dff27-km-45-in" shape="-2500363.817481409,3467118.2969353376 -2500971.703186737,3467239.102525453" priority="-1" numLanes="1" speed="110.0" allow="rail rail_electric" spreadType="center" />
<!-- Track bc5a04d6-9c4d-42f1-ad9e-e490bf9dff27 -->
<edge id="dff27-3" from="bc5a04d6-9c4d-42f1-ad9e-e490bf9dff27-km-664.7733628877847-gegen" to="bc5a04d6-9c4d-42f1-ad9e-e490bf9dff27-km-684.7733628877847-in" shape="-2500363.817481409,3467118.2969353376 -2500344.2010944607,3467114.398555789" priority="-1" numLanes="1" speed="110.0" allow="rail rail_electric" spreadType="center" />
<edge id="dff27-3-re" from="bc5a04d6-9c4d-42f1-ad9e-e490bf9dff27-km-684.7733628877847-in" to="bc5a04d6-9c4d-42f1-ad9e-e490bf9dff27-km-664.7733628877847-gegen" shape="-2500344.2010944607,3467114.398555789 -2500363.817481409,3467118.2969353376" priority="-1" numLanes="1" speed="110.0" allow="rail rail_electric" spreadType="center" />
<!-- Track bc5a04d6-9c4d-42f1-ad9e-e490bf9dff27 -->
<edge id="dff27-4" from="bc5a04d6-9c4d-42f1-ad9e-e490bf9dff27-km-684.7733628877847-in" to="9d5c0" shape="-2500344.2010944607,3467114.398555789 -2500319.680610776,3467109.5255813543" priority="-1" numLanes="1" speed="110.0" allow="rail rail_electric" spreadType="center" />
<edge id="dff27-4-re" from="9d5c0" to="bc5a04d6-9c4d-42f1-ad9e-e490bf9dff27-km-684.7733628877847-in" shape="-2500319.680610776,3467109.5255813543 -2500344.2010944607,3467114.398555789" priority="-1" numLanes="1" speed="110.0" allow="rail rail_electric" spreadType="center" />
<!-- Track 425c74b7-e2ce-4557-8bf8-98e8d2fac097 -->
<edge id="ac097-0" from="b2c53" to="425c74b7-e2ce-4557-8bf8-98e8d2fac097-km-25-gegen" shape="-2501015.8400573703,3467247.8738794364 -2501040.129426962,3467253.792200551" priority="-1" numLanes="1" speed="110.0" allow="rail rail_electric" spreadType="center" />
<edge id="ac097-0-re" from="425c74b7-e2ce-4557-8bf8-98e8d2fac097-km-25-gegen" to="b2c53" shape="-2501040.129426962,3467253.792200551 -2501015.8400573703,3467247.8738794364" priority="-1" numLanes="1" speed="110.0" allow="rail rail_electric" spreadType="center" />
<!-- Track 425c74b7-e2ce-4557-8bf8-98e8d2fac097 -->
<edge id="ac097-1" from="425c74b7-e2ce-4557-8bf8-98e8d2fac097-km-25-gegen" to="425c74b7-e2ce-4557-8bf8-98e8d2fac097-km-45-in" shape="-2501040.129426962,3467253.792200551 -2501059.560922636,3467258.526857442" priority="-1" numLanes="1" speed="110.0" allow="rail rail_electric" spreadType="center" />
<edge id="ac097-1-re" from="425c74b7-e2ce-4557-8bf8-98e8d2fac097-km-45-in" to="425c74b7-e2ce-4557-8bf8-98e8d2fac097-km-25-gegen" shape="-2501059.560922636,3467258.526857442 -2501040.129426962,3467253.792200551" priority="-1" numLanes="1" speed="110.0" allow="rail rail_electric" spreadType="center" />
<!-- Track 425c74b7-e2ce-4557-8bf8-98e8d2fac097 -->
<edge id="ac097-2" from="425c74b7-e2ce-4557-8bf8-98e8d2fac097-km-45-in" to="1d55a" shape="-2501059.560922636,3467258.526857442 -2501115.083613891,3467272.0554554053 -2501236.739845654,3467305.6705410834 -2501274.012567208,3467312.6615284346 -2501684.7521156543,3467394.7215760183" priority="-1" numLanes="1" speed="110.0" allow="rail rail_electric" spreadType="center" />
<edge id="ac097-2-re" from="1d55a" to="425c74b7-e2ce-4557-8bf8-98e8d2fac097-km-45-in" shape="-2501684.7521156543,3467394.7215760183 -2501274.012567208,3467312.6615284346 -2501236.739845654,3467305.6705410834 -2501115.083613891,3467272.0554554053 -2501059.560922636,3467258.526857442" priority="-1" numLanes="1" speed="110.0" allow="rail rail_electric" spreadType="center" />
<!-- Track da9f0108-102c-4cd8-9741-3d85819d15d0 -->
<edge id="d15d0-0" from="6e8be" to="da9f0108-102c-4cd8-9741-3d85819d15d0-km-25-gegen" shape="-2498540.5476426897,3466763.493575601 -2498516.147492651,3466758.0499850498" priority="-1" numLanes="1" speed="110.0" allow="rail rail_electric" spreadType="center" />
<edge id="d15d0-0-re" from="da9f0108-102c-4cd8-9741-3d85819d15d0-km-25-gegen" to="6e8be" shape="-2498516.147492651,3466758.0499850498 -2498540.5476426897,3466763.493575601" priority="-1" numLanes="1" speed="110.0" allow="rail rail_electric" spreadType="center" />
<!-- Track da9f0108-102c-4cd8-9741-3d85819d15d0 -->
<edge id="d15d0-1" from="da9f0108-102c-4cd8-9741-3d85819d15d0-km-25-gegen" to="da9f0108-102c-4cd8-9741-3d85819d15d0-km-45-in" shape="-2498516.147492651,3466758.0499850498 -2498496.62737262,3466753.695112609" priority="-1" numLanes="1" speed="110.0" allow="rail rail_electric" spreadType="center" />
<edge id="d15d0-1-re" from="da9f0108-102c-4cd8-9741-3d85819d15d0-km-45-in" to="da9f0108-102c-4cd8-9741-3d85819d15d0-km-25-gegen" shape="-2498496.62737262,3466753.695112609 -2498516.147492651,3466758.0499850498" priority="-1" numLanes="1" speed="110.0" allow="rail rail_electric" spreadType="center" />
<!-- Track da9f0108-102c-4cd8-9741-3d85819d15d0 -->
<edge id="d15d0-2" from="da9f0108-102c-4cd8-9741-3d85819d15d0-km-45-in" to="da9f0108-102c-4cd8-9741-3d85819d15d0-km-234.45431792963808-gegen" shape="-2498496.62737262,3466753.695112609 -2498402.661352981,3466732.7316129655 -2498329.9658797192,3466713.124746185 -2498312.5482047037,3466709.062629299" priority="-1" numLanes="1" speed="110.0" allow="rail rail_electric" spreadType="center" />
<edge id="d15d0-2-re" from="da9f0108-102c-4cd8-9741-3d85819d15d0-km-234.45431792963808-gegen" to="da9f0108-102c-4cd8-9741-3d85819d15d0-km-45-in" shape="-2498312.5482047037,3466709.062629299 -2498329.9658797192,3466713.124746185 -2498402.661352981,3466732.7316129655 -2498496.62737262,3466753.695112609" priority="-1" numLanes="1" speed="110.0" allow="rail rail_electric" spreadType="center" />