<?xml version="1.0" encoding="UTF-8"?>
<routes xmlns:xsi="http://www.w3.org/2001/XMLSchema-instance" xsi:noNamespaceSchemaLocation="http://sumo.dlr.de/xsd/routes_file.xsd">
	<route edges="8cedf-1 8cedf-2 8cedf-3" color="117,236,240" id="route_1C2E717A-7321-4571-BD40-635E6998CEDF-KM-45-IN-1C2E717A-7321-4571-BD40-635E6998CEDF-KM-321.5762856547864-IN"/>
	<route edges="8cedf-3 8cedf-4 9a295-4-re 9a295-3-re" color="74,23,166" id="route_1C2E717A-7321-4571-BD40-635E6998CEDF-KM-321.5762856547864-IN-C2379FC5-3576-4B4A-9A19-E688BEC9A295-KM-116.72691529462978-GEGEN"/>
	<route edges="8cedf-3 8cedf-4 7a57f-4-re 7a57f-3-re" color="80,101,130" id="route_1C2E717A-7321-4571-BD40-635E6998CEDF-KM-321.5762856547864-IN-F87222C2-9264-4CDE-ADD3-D72FBBE7A57F-KM-367.6570519499666-GEGEN"/>
	<route edges="8cedf-3-re 8cedf-2-re 8cedf-1-re" color="73,80,62" id="route_1C2E717A-7321-4571-BD40-635E6998CEDF-KM-301.5762856547864-GEGEN-1C2E717A-7321-4571-BD40-635E6998CEDF-KM-25-GEGEN"/>
	<route edges="8cedf-1-re 8cedf-0-re 1322f-0 1322f-1" color="220,220,242" id="route_1C2E717A-7321-4571-BD40-635E6998CEDF-KM-25-GEGEN-9101BB9D-DF03-450D-825D-7ECC48A1322F-KM-45-IN"/>
	<route edges="8cedf-1-re 8cedf-0-re 05fe3-0 05fe3-1" color="7,205,235" id="route_1C2E717A-7321-4571-BD40-635E6998CEDF-KM-25-GEGEN-12435233-A111-4781-B442-1D1001705FE3-KM-45-IN"/>
	<route edges="05fe3-1 05fe3-2 05fe3-3" color="170,181,68" id="route_12435233-A111-4781-B442-1D1001705FE3-KM-45-IN-12435233-A111-4781-B442-1D1001705FE3-KM-165.5616561823125-IN"/>
	<route edges="05fe3-3 05fe3-4 30da4-0 30da4-1" color="80,51,198" id="route_12435233-A111-4781-B442-1D1001705FE3-KM-165.5616561823125-IN-C73A7F7D-7593-46CD-BF88-E825AC730DA4-KM-45-IN"/>
	<route edges="05fe3-3 05fe3-4 b3306-0 b3306-1" color="170,45,59" id="route_12435233-A111-4781-B442-1D1001705FE3-KM-165.5616561823125-IN-EB365626-061A-4E79-8855-4DFF6D5B3306-KM-45-IN"/>
	<route edges="05fe3-3-re 05fe3-2-re 05fe3-1-re" color="179,76,160" id="route_12435233-A111-4781-B442-1D1001705FE3-KM-145.5616561823125-GEGEN-12435233-A111-4781-B442-1D1001705FE3-KM-25-GEGEN"/>
	<route edges="05fe3-1-re 05fe3-0-re 8cedf-0 8cedf-1" color="93,246,127" id="route_12435233-A111-4781-B442-1D1001705FE3-KM-25-GEGEN-1C2E717A-7321-4571-BD40-635E6998CEDF-KM-45-IN"/>
	<route edges="1322f-1 1322f-2 1322f-3" color="216,251,147" id="route_9101BB9D-DF03-450D-825D-7ECC48A1322F-KM-45-IN-9101BB9D-DF03-450D-825D-7ECC48A1322F-KM-852.2588211144425-IN"/>
	<route edges="1322f-3 1322f-4 03a4e-0 03a4e-1" color="169,215,36" id="route_9101BB9D-DF03-450D-825D-7ECC48A1322F-KM-852.2588211144425-IN-AE1406F5-AB08-45A7-981B-CCEF37E03A4E-KM-45-IN"/>
	<route edges="1322f-3 1322f-4 c11ce-0 c11ce-1" color="180,94,44" id="route_9101BB9D-DF03-450D-825D-7ECC48A1322F-KM-852.2588211144425-IN-656ECA32-8416-4BDD-B521-FA2CE0DC11CE-KM-45-IN"/>
	<route edges="1322f-3-re 1322f-2-re 1322f-1-re" color="14,229,138" id="route_9101BB9D-DF03-450D-825D-7ECC48A1322F-KM-832.2588211144425-GEGEN-9101BB9D-DF03-450D-825D-7ECC48A1322F-KM-25-GEGEN"/>
	<route edges="1322f-1-re 1322f-0-re 8cedf-0 8cedf-1" color="43,252,154" id="route_9101BB9D-DF03-450D-825D-7ECC48A1322F-KM-25-GEGEN-1C2E717A-7321-4571-BD40-635E6998CEDF-KM-45-IN"/>
	<route edges="30da4-1 30da4-2 30da4-3" color="125,92,37" id="route_C73A7F7D-7593-46CD-BF88-E825AC730DA4-KM-45-IN-C73A7F7D-7593-46CD-BF88-E825AC730DA4-KM-788.1457216628645-IN"/>
	<route edges="30da4-3 30da4-4 f3331-0 f3331-1" color="45,226,62" id="route_C73A7F7D-7593-46CD-BF88-E825AC730DA4-KM-788.1457216628645-IN-FFF05AF4-B4F8-459E-A49B-28F4526F3331-KM-45-IN"/>
	<route edges="30da4-3-re 30da4-2-re 30da4-1-re" color="140,201,75" id="route_C73A7F7D-7593-46CD-BF88-E825AC730DA4-KM-768.1457216628645-GEGEN-C73A7F7D-7593-46CD-BF88-E825AC730DA4-KM-25-GEGEN"/>
	<route edges="30da4-1-re 30da4-0-re 05fe3-4-re 05fe3-3-re" color="46,131,37" id="route_C73A7F7D-7593-46CD-BF88-E825AC730DA4-KM-25-GEGEN-12435233-A111-4781-B442-1D1001705FE3-KM-145.5616561823125-GEGEN"/>
	<route edges="b3306-1 b3306-2 b3306-3" color="54,169,33" id="route_EB365626-061A-4E79-8855-4DFF6D5B3306-KM-45-IN-EB365626-061A-4E79-8855-4DFF6D5B3306-KM-238.52550007798908-IN"/>
	<route edges="b3306-3 b3306-4 a837a-0 75706-4-re 75706-3-re" color="170,142,129" id="route_EB365626-061A-4E79-8855-4DFF6D5B3306-KM-238.52550007798908-IN-1F274338-6B0E-4800-BA3E-4A2E59B75706-KM-1602.7448348066494-GEGEN"/>
	<route edges="b3306-3 b3306-4 a837a-0 27b99-4-re 27b99-3-re" color="200,122,60" id="route_EB365626-061A-4E79-8855-4DFF6D5B3306-KM-238.52550007798908-IN-4C6E9011-54FB-429A-9AEE-43DB4B527B99-KM-1653.6383523495206-GEGEN"/>
	<route edges="b3306-3-re b3306-2-re b3306-1-re" color="186,80,21" id="route_EB365626-061A-4E79-8855-4DFF6D5B3306-KM-218.52550007798908-GEGEN-EB365626-061A-4E79-8855-4DFF6D5B3306-KM-25-GEGEN"/>
	<route edges="b3306-1-re b3306-0-re 05fe3-4-re 05fe3-3-re" color="229,18,98" id="route_EB365626-061A-4E79-8855-4DFF6D5B3306-KM-25-GEGEN-12435233-A111-4781-B442-1D1001705FE3-KM-145.5616561823125-GEGEN"/>
	<route edges="f3331-1 f3331-2 f3331-3" color="194,53,128" id="route_FFF05AF4-B4F8-459E-A49B-28F4526F3331-KM-45-IN-FFF05AF4-B4F8-459E-A49B-28F4526F3331-KM-169.7673894741766-IN"/>
	<route edges="f3331-3 f3331-4 dff27-0 dff27-1" color="235,134,100" id="route_FFF05AF4-B4F8-459E-A49B-28F4526F3331-KM-169.7673894741766-IN-BC5A04D6-9C4D-42F1-AD9E-E490BF9DFF27-KM-45-IN"/>
	<route edges="f3331-3-re f3331-2-re f3331-1-re" color="14,202,78" id="route_FFF05AF4-B4F8-459E-A49B-28F4526F3331-KM-149.7673894741766-GEGEN-FFF05AF4-B4F8-459E-A49B-28F4526F3331-KM-25-GEGEN"/>
	<route edges="f3331-1-re f3331-0-re 72526-0 72526-1" color="122,97,94" id="route_FFF05AF4-B4F8-459E-A49B-28F4526F3331-KM-25-GEGEN-921274AB-3E6D-4E98-BBB3-C8E82EB72526-KM-45-IN"/>
	<route edges="f3331-1-re f3331-0-re 30da4-4-re 30da4-3-re" color="151,125,200" id="route_FFF05AF4-B4F8-459E-A49B-28F4526F3331-KM-25-GEGEN-C73A7F7D-7593-46CD-BF88-E825AC730DA4-KM-768.1457216628645-GEGEN"/>
	<route edges="72526-1-re 72526-0-re f3331-0 f3331-1" color="142,252,18" id="route_921274AB-3E6D-4E98-BBB3-C8E82EB72526-KM-25-GEGEN-FFF05AF4-B4F8-459E-A49B-28F4526F3331-KM-45-IN"/>
	<route edges="dff27-1 dff27-2 dff27-3" color="76,132,15" id="route_BC5A04D6-9C4D-42F1-AD9E-E490BF9DFF27-KM-45-IN-BC5A04D6-9C4D-42F1-AD9E-E490BF9DFF27-KM-684.7733628877847-IN"/>
	<route edges="dff27-3 dff27-4 1a0c5-0-re 76b5c-0 76b5c-1" color="68,5,192" id="route_BC5A04D6-9C4D-42F1-AD9E-E490BF9DFF27-KM-684.7733628877847-IN-AF208A17-6312-410A-9961-8CF639A76B5C-KM-45-IN"/>
	<route edges="dff27-3 dff27-4 1a0c5-0-re 8c670-0 8c670-1" color="229,63,77" id="route_BC5A04D6-9C4D-42F1-AD9E-E490BF9DFF27-KM-684.7733628877847-IN-04F0F45C-6C4D-4D6C-B69C-F9FBEF38C670-KM-45-IN"/>
	<route edges="dff27-3 dff27-4 a0416-0 a0416-1" color="6,110,211" id="route_BC5A04D6-9C4D-42F1-AD9E-E490BF9DFF27-KM-684.7733628877847-IN-08B2D87E-C242-4C99-AB85-E7E8118A0416-KM-45-IN"/>
	<route edges="dff27-3-re dff27-2-re dff27-1-re" color="193,39,0" id="route_BC5A04D6-9C4D-42F1-AD9E-E490BF9DFF27-KM-664.7733628877847-GEGEN-BC5A04D6-9C4D-42F1-AD9E-E490BF9DFF27-KM-25-GEGEN"/>
	<route edges="dff27-1-re dff27-0-re f3331-4-re f3331-3-re" color="24,230,68" id="route_BC5A04D6-9C4D-42F1-AD9E-E490BF9DFF27-KM-25-GEGEN-FFF05AF4-B4F8-459E-A49B-28F4526F3331-KM-149.7673894741766-GEGEN"/>
	<route edges="dff27-1-re dff27-0-re ac097-0 ac097-1" color="252,239,82" id="route_BC5A04D6-9C4D-42F1-AD9E-E490BF9DFF27-KM-25-GEGEN-425C74B7-E2CE-4557-8BF8-98E8D2FAC097-KM-45-IN"/>
	<route edges="ac097-1-re ac097-0-re dff27-0 dff27-1" color="111,108,192" id="route_425C74B7-E2CE-4557-8BF8-98E8D2FAC097-KM-25-GEGEN-BC5A04D6-9C4D-42F1-AD9E-E490BF9DFF27-KM-45-IN"/>
	<route edges="d15d0-1 d15d0-2 d15d0-3" color="197,133,254" id="route_DA9F0108-102C-4CD8-9741-3D85819D15D0-KM-45-IN-DA9F0108-102C-4CD8-9741-3D85819D15D0-KM-254.45431792963808-IN"/>
	<route edges="d15d0-3 d15d0-4 102bb-0 102bb-1" color="226,186,35" id="route_DA9F0108-102C-4CD8-9741-3D85819D15D0-KM-254.45431792963808-IN-6759BD85-DE1F-4DCF-AE09-D2C4944102BB-KM-45-IN"/>
	<route edges="d15d0-3-re d15d0-2-re d15d0-1-re" color="51,56,68" id="route_DA9F0108-102C-4CD8-9741-3D85819D15D0-KM-234.45431792963808-GEGEN-DA9F0108-102C-4CD8-9741-3D85819D15D0-KM-25-GEGEN"/>
	<route edges="d15d0-1-re d15d0-0-re 152bb-0 bbea9-4-re bbea9-3-re" color="5,185,75" id="route_DA9F0108-102C-4CD8-9741-3D85819D15D0-KM-25-GEGEN-1054613A-1DDB-414C-9B18-0C4D29DBBEA9-KM-128.17881652121687-GEGEN"/>
	<route edges="d15d0-1-re d15d0-0-re 152bb-0 76b5c-4-re 76b5c-3-re" color="22,60,201" id="route_DA9F0108-102C-4CD8-9741-3D85819D15D0-KM-25-GEGEN-AF208A17-6312-410A-9961-8CF639A76B5C-KM-1651.7895552905081-GEGEN"/>
	<route edges="5b7ed-1 5b7ed-2 5b7ed-3" color="50,187,95" id="route_26662E89-8672-4429-A8EE-D3F13885B7ED-KM-45-IN-26662E89-8672-4429-A8EE-D3F13885B7ED-KM-1010.0-IN"/>
	<route edges="5b7ed-3 5b7ed-4 5b7ed-5" color="70,182,9" id="route_26662E89-8672-4429-A8EE-D3F13885B7ED-KM-1010.0-IN-26662E89-8672-4429-A8EE-D3F13885B7ED-KM-2010.0-IN"/>
	<route edges="5b7ed-5 5b7ed-6 5b7ed-7" color="5,197,41" id="route_26662E89-8672-4429-A8EE-D3F13885B7ED-KM-2010.0-IN-26662E89-8672-4429-A8EE-D3F13885B7ED-KM-3010.0-IN"/>
	<route edges="5b7ed-7 5b7ed-8 5b7ed-9" color="27,149,5" id="route_26662E89-8672-4429-A8EE-D3F13885B7ED-KM-3010.0-IN-26662E89-8672-4429-A8EE-D3F13885B7ED-KM-4010.0-IN"/>
	<route edges="5b7ed-9 5b7ed-10 5b7ed-11" color="145,124,250" id="route_26662E89-8672-4429-A8EE-D3F13885B7ED-KM-4010.0-IN-26662E89-8672-4429-A8EE-D3F13885B7ED-KM-5560.253303703657-IN"/>
	<route edges="5b7ed-11 5b7ed-12 15497-6-re 15497-5-re" color="234,69,161" id="route_26662E89-8672-4429-A8EE-D3F13885B7ED-KM-5560.253303703657-IN-5E7B61F4-FCD7-4F80-A8AE-F860E6415497-KM-2065.2638939954745-GEGEN"/>
	<route edges="5b7ed-11 5b7ed-12 cbeb7-4-re cbeb7-3-re" color="143,70,10" id="route_26662E89-8672-4429-A8EE-D3F13885B7ED-KM-5560.253303703657-IN-887A34A5-4916-476F-8B46-13FCE7ECBEB7-KM-1326.0689693348354-GEGEN"/>
	<route edges="5b7ed-11-re 5b7ed-10-re 5b7ed-9-re" color="102,106,116" id="route_26662E89-8672-4429-A8EE-D3F13885B7ED-KM-5540.253303703657-GEGEN-26662E89-8672-4429-A8EE-D3F13885B7ED-KM-3990.0-GEGEN"/>
	<route edges="5b7ed-9-re 5b7ed-8-re 5b7ed-7-re" color="29,74,33" id="route_26662E89-8672-4429-A8EE-D3F13885B7ED-KM-3990.0-GEGEN-26662E89-8672-4429-A8EE-D3F13885B7ED-KM-2990.0-GEGEN"/>
	<route edges="5b7ed-7-re 5b7ed-6-re 5b7ed-5-re" color="220,172,6" id="route_26662E89-8672-4429-A8EE-D3F13885B7ED-KM-2990.0-GEGEN-26662E89-8672-4429-A8EE-D3F13885B7ED-KM-1990.0-GEGEN"/>
	<route edges="5b7ed-5-re 5b7ed-4-re 5b7ed-3-re" color="107,114,111" id="route_26662E89-8672-4429-A8EE-D3F13885B7ED-KM-1990.0-GEGEN-26662E89-8672-4429-A8EE-D3F13885B7ED-KM-990.0-GEGEN"/>
	<route edges="5b7ed-3-re 5b7ed-2-re 5b7ed-1-re" color="136,227,29" id="route_26662E89-8672-4429-A8EE-D3F13885B7ED-KM-990.0-GEGEN-26662E89-8672-4429-A8EE-D3F13885B7ED-KM-25-GEGEN"/>
	<route edges="5b7ed-1-re 5b7ed-0-re 152bb-0 bbea9-4-re bbea9-3-re" color="97,192,166" id="route_26662E89-8672-4429-A8EE-D3F13885B7ED-KM-25-GEGEN-1054613A-1DDB-414C-9B18-0C4D29DBBEA9-KM-128.17881652121687-GEGEN"/>
	<route edges="5b7ed-1-re 5b7ed-0-re 152bb-0 76b5c-4-re 76b5c-3-re" color="170,170,247" id="route_26662E89-8672-4429-A8EE-D3F13885B7ED-KM-25-GEGEN-AF208A17-6312-410A-9961-8CF639A76B5C-KM-1651.7895552905081-GEGEN"/>
	<route edges="67cb9-1 67cb9-2 67cb9-3" color="93,246,197" id="route_86BE57BA-E1FB-42C6-A1DC-7B5EFA667CB9-KM-45-IN-86BE57BA-E1FB-42C6-A1DC-7B5EFA667CB9-KM-463.81731618508263-IN"/>
	<route edges="67cb9-3 67cb9-4 7c058-0-re bd427-4-re bd427-3-re" color="231,186,33" id="route_86BE57BA-E1FB-42C6-A1DC-7B5EFA667CB9-KM-463.81731618508263-IN-8733FAAB-1A10-4D87-A892-9ADD23ABD427-KM-1169.3495270408275-GEGEN"/>
	<route edges="67cb9-3 67cb9-4 7c058-0-re 8c670-4-re 8c670-3-re" color="179,62,190" id="route_86BE57BA-E1FB-42C6-A1DC-7B5EFA667CB9-KM-463.81731618508263-IN-04F0F45C-6C4D-4D6C-B69C-F9FBEF38C670-KM-1432.8979874733736-GEGEN"/>
	<route edges="67cb9-3-re 67cb9-2-re 67cb9-1-re" color="230,53,184" id="route_86BE57BA-E1FB-42C6-A1DC-7B5EFA667CB9-KM-443.81731618508263-GEGEN-86BE57BA-E1FB-42C6-A1DC-7B5EFA667CB9-KM-25-GEGEN"/>
	<route edges="67cb9-1-re 67cb9-0-re 102bb-0 102bb-1" color="10,137,134" id="route_86BE57BA-E1FB-42C6-A1DC-7B5EFA667CB9-KM-25-GEGEN-6759BD85-DE1F-4DCF-AE09-D2C4944102BB-KM-45-IN"/>
	<route edges="102bb-1 102bb-2 102bb-3" color="5,101,182" id="route_6759BD85-DE1F-4DCF-AE09-D2C4944102BB-KM-45-IN-6759BD85-DE1F-4DCF-AE09-D2C4944102BB-KM-1908.0650690078241-IN"/>
	<route edges="102bb-3 102bb-4 9a8e0-0 9a8e0-1" color="182,150,62" id="route_6759BD85-DE1F-4DCF-AE09-D2C4944102BB-KM-1908.0650690078241-IN-00089A71-705D-46FE-9E18-9D724419A8E0-KM-45-IN"/>
	<route edges="102bb-3 102bb-4 f26d9-0 5963d-0 1c323-0-re b7750-0 67406-0 67406-1" color="34,103,237" id="route_6759BD85-DE1F-4DCF-AE09-D2C4944102BB-KM-1908.0650690078241-IN-C7F286BE-DD25-41D7-8F1E-550087867406-KM-45-IN"/>
	<route edges="102bb-3 102bb-4 f26d9-0 5963d-0 1c323-0-re b7750-0 1ba9e-0 1ba9e-1" color="137,86,159" id="route_6759BD85-DE1F-4DCF-AE09-D2C4944102BB-KM-1908.0650690078241-IN-E7CB1120-DF3E-4755-B95C-D310DF91BA9E-KM-45-IN"/>
	<route edges="102bb-3 102bb-4 f26d9-0 5963d-0 0d8a2-0 0d8a2-1" color="6,94,50" id="route_6759BD85-DE1F-4DCF-AE09-D2C4944102BB-KM-1908.0650690078241-IN-B07A9951-FBF0-4DC7-A13F-B1B62510D8A2-KM-45-IN"/>
	<route edges="102bb-3-re 102bb-2-re 102bb-1-re" color="188,211,47" id="route_6759BD85-DE1F-4DCF-AE09-D2C4944102BB-KM-1888.0650690078241-GEGEN-6759BD85-DE1F-4DCF-AE09-D2C4944102BB-KM-25-GEGEN"/>
	<route edges="102bb-1-re 102bb-0-re 67cb9-0 67cb9-1" color="61,60,77" id="route_6759BD85-DE1F-4DCF-AE09-D2C4944102BB-KM-25-GEGEN-86BE57BA-E1FB-42C6-A1DC-7B5EFA667CB9-KM-45-IN"/>
	<route edges="102bb-1-re 102bb-0-re d15d0-4-re d15d0-3-re" color="247,185,71" id="route_6759BD85-DE1F-4DCF-AE09-D2C4944102BB-KM-25-GEGEN-DA9F0108-102C-4CD8-9741-3D85819D15D0-KM-234.45431792963808-GEGEN"/>
	<route edges="2b403-1 2b403-2 2b403-3" color="107,50,60" id="route_91CE699F-4F72-4E69-AB75-25A06B72B403-KM-45-IN-91CE699F-4F72-4E69-AB75-25A06B72B403-KM-1010.0-IN"/>
	<route edges="2b403-3 2b403-4 2b403-5" color="48,91,64" id="route_91CE699F-4F72-4E69-AB75-25A06B72B403-KM-1010.0-IN-91CE699F-4F72-4E69-AB75-25A06B72B403-KM-2968.0134948223827-IN"/>
	<route edges="2b403-5 2b403-6 14089-0 14089-1" color="125,143,164" id="route_91CE699F-4F72-4E69-AB75-25A06B72B403-KM-2968.0134948223827-IN-9A0E3600-EBF4-4CDB-8F41-F96758214089-KM-45-IN"/>
	<route edges="2b403-5-re 2b403-4-re 2b403-3-re" color="6,101,12" id="route_91CE699F-4F72-4E69-AB75-25A06B72B403-KM-2948.0134948223827-GEGEN-91CE699F-4F72-4E69-AB75-25A06B72B403-KM-990.0-GEGEN"/>
	<route edges="2b403-3-re 2b403-2-re 2b403-1-re" color="28,239,47" id="route_91CE699F-4F72-4E69-AB75-25A06B72B403-KM-990.0-GEGEN-91CE699F-4F72-4E69-AB75-25A06B72B403-KM-25-GEGEN"/>
	<route edges="2b403-1-re 2b403-0-re 9e602-0 1ba9e-4-re 1ba9e-3-re" color="173,164,159" id="route_91CE699F-4F72-4E69-AB75-25A06B72B403-KM-25-GEGEN-E7CB1120-DF3E-4755-B95C-D310DF91BA9E-KM-320.8087986779541-GEGEN"/>
	<route edges="2b403-1-re 2b403-0-re 9e602-0 3817d-0 6f735-0-re c0ee1-0 67406-4-re 67406-3-re" color="255,166,210" id="route_91CE699F-4F72-4E69-AB75-25A06B72B403-KM-25-GEGEN-C7F286BE-DD25-41D7-8F1E-550087867406-KM-161.66400492600528-GEGEN"/>
	<route edges="2b403-1-re 2b403-0-re 9e602-0 3817d-0 6f735-0-re c0ee1-0 55ec5-0 b85a0-0 b85a0-1" color="20,24,94" id="route_91CE699F-4F72-4E69-AB75-25A06B72B403-KM-25-GEGEN-63C36BB8-495D-424B-BBEB-60FD229B85A0-KM-45-IN"/>
	<route edges="2b403-1-re 2b403-0-re 9e602-0 3817d-0 6f735-0-re c0ee1-0 55ec5-0 436ec-0 aaf67-4-re aaf67-3-re" color="190,207,119" id="route_91CE699F-4F72-4E69-AB75-25A06B72B403-KM-25-GEGEN-A0FC129B-AFF8-44F3-9FFB-0DA1AD3AAF67-KM-535.7322343251935-GEGEN"/>
	<route edges="2b403-1-re 2b403-0-re 9e602-0 3817d-0 6f735-0-re c0ee1-0 55ec5-0 436ec-0 5231f-0 4e4c6-4-re 4e4c6-3-re" color="52,127,175" id="route_91CE699F-4F72-4E69-AB75-25A06B72B403-KM-25-GEGEN-1B5EDE7F-2815-4709-9168-4BFD22A4E4C6-KM-375.60889533993935-GEGEN"/>
	<route edges="49514-1 49514-2 49514-3" color="53,141,142" id="route_105384BB-EFD9-4475-80CD-4DA468149514-KM-45-IN-105384BB-EFD9-4475-80CD-4DA468149514-KM-96.47358751756049-IN"/>
	<route edges="49514-3 49514-4 5b030-4-re 5b030-3-re" color="159,109,45" id="route_105384BB-EFD9-4475-80CD-4DA468149514-KM-96.47358751756049-IN-592AA209-5451-4DDD-91F8-2E555865B030-KM-75.25638756029988-GEGEN"/>
	<route edges="49514-3 49514-4 eab78-0 eab78-1" color="171,175,79" id="route_105384BB-EFD9-4475-80CD-4DA468149514-KM-96.47358751756049-IN-7738045F-4F2F-43DA-AAAD-ED16805EAB78-KM-45-IN"/>
	<route edges="49514-3-re 49514-2-re 49514-1-re" color="138,1,214" id="route_105384BB-EFD9-4475-80CD-4DA468149514-KM-76.47358751756049-GEGEN-105384BB-EFD9-4475-80CD-4DA468149514-KM-25-GEGEN"/>
	<route edges="49514-1-re 49514-0-re 3d5c3-0 3d5c3-1" color="158,140,53" id="route_105384BB-EFD9-4475-80CD-4DA468149514-KM-25-GEGEN-2BF27086-845D-4249-8278-61169F03D5C3-KM-45-IN"/>
	<route edges="3d5c3-1 3d5c3-2 3d5c3-3" color="171,29,103" id="route_2BF27086-845D-4249-8278-61169F03D5C3-KM-45-IN-2BF27086-845D-4249-8278-61169F03D5C3-KM-196.352947606197-IN"/>
	<route edges="3d5c3-3 3d5c3-4 5aa2a-4-re 5aa2a-3-re" color="237,85,99" id="route_2BF27086-845D-4249-8278-61169F03D5C3-KM-196.352947606197-IN-8B82FDD6-F1E2-475F-A91F-22909545AA2A-KM-147.7220062676434-GEGEN"/>
	<route edges="3d5c3-3 3d5c3-4 48ab9-4-re 48ab9-3-re" color="2,197,125" id="route_2BF27086-845D-4249-8278-61169F03D5C3-KM-196.352947606197-IN-7CA792E3-DF89-42B5-B3D5-D4A483F48AB9-KM-738.9329257464503-GEGEN"/>
	<route edges="3d5c3-3-re 3d5c3-2-re 3d5c3-1-re" color="235,109,133" id="route_2BF27086-845D-4249-8278-61169F03D5C3-KM-176.352947606197-GEGEN-2BF27086-845D-4249-8278-61169F03D5C3-KM-25-GEGEN"/>
	<route edges="3d5c3-1-re 3d5c3-0-re 49514-0 49514-1" color="114,154,7" id="route_2BF27086-845D-4249-8278-61169F03D5C3-KM-25-GEGEN-105384BB-EFD9-4475-80CD-4DA468149514-KM-45-IN"/>
	<route edges="3d5c3-1-re 3d5c3-0-re 131b0-0 79c62-0 a1b21-0 a1b21-1" color="217,188,89" id="route_2BF27086-845D-4249-8278-61169F03D5C3-KM-25-GEGEN-6F9F98DE-F205-41D9-AA90-E32ABE6A1B21-KM-45-IN"/>
	<route edges="3d5c3-1-re 3d5c3-0-re 131b0-0 79c62-0 37ede-4-re 37ede-3-re" color="130,10,80" id="route_2BF27086-845D-4249-8278-61169F03D5C3-KM-25-GEGEN-CFC785B7-A397-4F95-92CA-03B0D4837EDE-KM-1029.2555641663412-GEGEN"/>
	<route edges="3d5c3-1-re 3d5c3-0-re 131b0-0 41fac-0 41fac-1" color="112,170,246" id="route_2BF27086-845D-4249-8278-61169F03D5C3-KM-25-GEGEN-B7CDEFA0-BA67-4C40-A3A8-9CF966641FAC-KM-45-IN"/>
	<route edges="41fac-1 41fac-2 41fac-3" color="143,147,143" id="route_B7CDEFA0-BA67-4C40-A3A8-9CF966641FAC-KM-45-IN-B7CDEFA0-BA67-4C40-A3A8-9CF966641FAC-KM-1077.9134160895494-IN"/>
	<route edges="41fac-3 41fac-4 6d1e8-0 dbb31-0 2c693-0 2c693-1" color="157,27,78" id="route_B7CDEFA0-BA67-4C40-A3A8-9CF966641FAC-KM-1077.9134160895494-IN-C434897C-29E2-41F9-93A4-868FFC52C693-KM-45-IN"/>
	<route edges="41fac-3-re 41fac-2-re 41fac-1-re" color="202,160,47" id="route_B7CDEFA0-BA67-4C40-A3A8-9CF966641FAC-KM-1057.9134160895494-GEGEN-B7CDEFA0-BA67-4C40-A3A8-9CF966641FAC-KM-25-GEGEN"/>
	<route edges="41fac-1-re 41fac-0-re 131b0-0-re 3d5c3-0 3d5c3-1" color="5,146,130" id="route_B7CDEFA0-BA67-4C40-A3A8-9CF966641FAC-KM-25-GEGEN-2BF27086-845D-4249-8278-61169F03D5C3-KM-45-IN"/>
	<route edges="37ede-1 37ede-2 37ede-3" color="169,155,243" id="route_CFC785B7-A397-4F95-92CA-03B0D4837EDE-KM-45-IN-CFC785B7-A397-4F95-92CA-03B0D4837EDE-KM-1049.2555641663412-IN"/>
	<route edges="37ede-3 37ede-4 79c62-0-re 131b0-0-re 3d5c3-0 3d5c3-1" color="81,214,187" id="route_CFC785B7-A397-4F95-92CA-03B0D4837EDE-KM-1049.2555641663412-IN-2BF27086-845D-4249-8278-61169F03D5C3-KM-45-IN"/>
	<route edges="37ede-3-re 37ede-2-re 37ede-1-re" color="87,108,43" id="route_CFC785B7-A397-4F95-92CA-03B0D4837EDE-KM-1029.2555641663412-GEGEN-CFC785B7-A397-4F95-92CA-03B0D4837EDE-KM-25-GEGEN"/>
	<route edges="37ede-1-re 37ede-0-re dbb31-0 2c693-0 2c693-1" color="136,119,141" id="route_CFC785B7-A397-4F95-92CA-03B0D4837EDE-KM-25-GEGEN-C434897C-29E2-41F9-93A4-868FFC52C693-KM-45-IN"/>
	<route edges="2c693-1 2c693-2 2c693-3" color="214,99,253" id="route_C434897C-29E2-41F9-93A4-868FFC52C693-KM-45-IN-C434897C-29E2-41F9-93A4-868FFC52C693-KM-455.0663329602517-IN"/>
	<route edges="2c693-3 2c693-4 d181b-0 d181b-1" color="130,20,203" id="route_C434897C-29E2-41F9-93A4-868FFC52C693-KM-455.0663329602517-IN-DC0A155C-6F68-4471-927B-BE66780D181B-KM-45-IN"/>
	<route edges="2c693-3 2c693-4 aa4f9-0 aa4f9-1" color="249,35,139" id="route_C434897C-29E2-41F9-93A4-868FFC52C693-KM-455.0663329602517-IN-4050C823-9B0D-4AA6-B0AE-890C71CAA4F9-KM-45-IN"/>
	<route edges="2c693-3-re 2c693-2-re 2c693-1-re" color="154,42,120" id="route_C434897C-29E2-41F9-93A4-868FFC52C693-KM-435.0663329602517-GEGEN-C434897C-29E2-41F9-93A4-868FFC52C693-KM-25-GEGEN"/>
	<route edges="2c693-1-re 2c693-0-re dbb31-0-re 6d1e8-0-re 8362a-0 fb9c9-4-re fb9c9-3-re" color="112,61,217" id="route_C434897C-29E2-41F9-93A4-868FFC52C693-KM-25-GEGEN-DC2D260A-E9CE-41FB-BAB4-DE85025FB9C9-KM-928.2641741372947-GEGEN"/>
	<route edges="2c693-1-re 2c693-0-re dbb31-0-re 6d1e8-0-re 41fac-4-re 41fac-3-re" color="37,124,103" id="route_C434897C-29E2-41F9-93A4-868FFC52C693-KM-25-GEGEN-B7CDEFA0-BA67-4C40-A3A8-9CF966641FAC-KM-1057.9134160895494-GEGEN"/>
	<route edges="2c693-1-re 2c693-0-re dbb31-0-re 37ede-0 37ede-1" color="51,33,0" id="route_C434897C-29E2-41F9-93A4-868FFC52C693-KM-25-GEGEN-CFC785B7-A397-4F95-92CA-03B0D4837EDE-KM-45-IN"/>
	<route edges="2c693-1-re 2c693-0-re 2b7ad-0 5c953-4-re 5c953-3-re" color="127,251,207" id="route_C434897C-29E2-41F9-93A4-868FFC52C693-KM-25-GEGEN-95203F22-F08C-42D5-900D-15DD8D05C953-KM-894.5519844172353-GEGEN"/>
	<route edges="2c693-1-re 2c693-0-re 2b7ad-0 a3ac4-0 24da3-4-re 24da3-3-re" color="250,164,239" id="route_C434897C-29E2-41F9-93A4-868FFC52C693-KM-25-GEGEN-EFBDF8C0-8D72-46E6-AAF6-787C44024DA3-KM-870.2218839305359-GEGEN"/>
	<route edges="2c693-1-re 2c693-0-re 2b7ad-0 a3ac4-0 6838c-0-re 36fc4-0 eab78-4-re eab78-3-re" color="120,247,142" id="route_C434897C-29E2-41F9-93A4-868FFC52C693-KM-25-GEGEN-7738045F-4F2F-43DA-AAAD-ED16805EAB78-KM-894.6100386400316-GEGEN"/>
	<route edges="2c693-1-re 2c693-0-re 2b7ad-0 a3ac4-0 6838c-0-re 36fc4-0 458ee-4-re 458ee-3-re" color="91,97,78" id="route_C434897C-29E2-41F9-93A4-868FFC52C693-KM-25-GEGEN-7A76E04F-E458-430A-87F2-383FD00458EE-KM-254.39386848397498-GEGEN"/>
	<route edges="aa4f9-1 aa4f9-2 aa4f9-3" color="241,212,155" id="route_4050C823-9B0D-4AA6-B0AE-890C71CAA4F9-KM-45-IN-4050C823-9B0D-4AA6-B0AE-890C71CAA4F9-KM-79.28485462572691-IN"/>
	<route edges="aa4f9-3 aa4f9-4 1f830-0 1f830-1" color="210,176,128" id="route_4050C823-9B0D-4AA6-B0AE-890C71CAA4F9-KM-79.28485462572691-IN-033484D1-4284-4E64-848D-FCE431E1F830-KM-45-IN"/>
	<route edges="aa4f9-3-re aa4f9-2-re aa4f9-1-re" color="187,140,153" id="route_4050C823-9B0D-4AA6-B0AE-890C71CAA4F9-KM-59.28485462572691-GEGEN-4050C823-9B0D-4AA6-B0AE-890C71CAA4F9-KM-25-GEGEN"/>
	<route edges="aa4f9-1-re aa4f9-0-re 2c693-4-re 2c693-3-re" color="12,203,187" id="route_4050C823-9B0D-4AA6-B0AE-890C71CAA4F9-KM-25-GEGEN-C434897C-29E2-41F9-93A4-868FFC52C693-KM-435.0663329602517-GEGEN"/>
	<route edges="d181b-1 d181b-2 d181b-3" color="1,104,236" id="route_DC0A155C-6F68-4471-927B-BE66780D181B-KM-45-IN-DC0A155C-6F68-4471-927B-BE66780D181B-KM-90.49227411094549-IN"/>
	<route edges="d181b-3 d181b-4 c8d65-0 c8d65-1" color="114,53,42" id="route_DC0A155C-6F68-4471-927B-BE66780D181B-KM-90.49227411094549-IN-A2204DA5-8176-4A61-BD7D-3EAE920C8D65-KM-45-IN"/>
	<route edges="d181b-3-re d181b-2-re d181b-1-re" color="11,97,105" id="route_DC0A155C-6F68-4471-927B-BE66780D181B-KM-70.49227411094549-GEGEN-DC0A155C-6F68-4471-927B-BE66780D181B-KM-25-GEGEN"/>
	<route edges="d181b-1-re d181b-0-re 2c693-4-re 2c693-3-re" color="180,123,108" id="route_DC0A155C-6F68-4471-927B-BE66780D181B-KM-25-GEGEN-C434897C-29E2-41F9-93A4-868FFC52C693-KM-435.0663329602517-GEGEN"/>
	<route edges="1f830-1 1f830-2 1f830-3" color="243,107,26" id="route_033484D1-4284-4E64-848D-FCE431E1F830-KM-45-IN-033484D1-4284-4E64-848D-FCE431E1F830-KM-984.5542787261779-IN"/>
	<route edges="1f830-3 1f830-4 20c8e-0 20c8e-1" color="203,69,13" id="route_033484D1-4284-4E64-848D-FCE431E1F830-KM-984.5542787261779-IN-70D37905-7EA7-4B88-B6C2-0C7556620C8E-KM-45-IN"/>
	<route edges="1f830-3-re 1f830-2-re 1f830-1-re" color="31,179,138" id="route_033484D1-4284-4E64-848D-FCE431E1F830-KM-964.5542787261779-GEGEN-033484D1-4284-4E64-848D-FCE431E1F830-KM-25-GEGEN"/>
	<route edges="1f830-1-re 1f830-0-re c9224-0 c9224-1" color="156,2,159" id="route_033484D1-4284-4E64-848D-FCE431E1F830-KM-25-GEGEN-ECF08A09-CCDF-4F7F-B460-9400837C9224-KM-45-IN"/>
	<route edges="1f830-1-re 1f830-0-re aa4f9-4-re aa4f9-3-re" color="22,232,54" id="route_033484D1-4284-4E64-848D-FCE431E1F830-KM-25-GEGEN-4050C823-9B0D-4AA6-B0AE-890C71CAA4F9-KM-59.28485462572691-GEGEN"/>
	<route edges="c9224-1 c9224-2 c9224-3" color="114,243,196" id="route_ECF08A09-CCDF-4F7F-B460-9400837C9224-KM-45-IN-ECF08A09-CCDF-4F7F-B460-9400837C9224-KM-101.34410270980774-IN"/>
	<route edges="c9224-3 c9224-4 7dfac-0 7dfac-1" color="129,37,12" id="route_ECF08A09-CCDF-4F7F-B460-9400837C9224-KM-101.34410270980774-IN-4F6144DF-08F1-4C39-BC87-B4DD2077DFAC-KM-45-IN"/>
	<route edges="c9224-3-re c9224-2-re c9224-1-re" color="83,45,140" id="route_ECF08A09-CCDF-4F7F-B460-9400837C9224-KM-81.34410270980774-GEGEN-ECF08A09-CCDF-4F7F-B460-9400837C9224-KM-25-GEGEN"/>
	<route edges="c9224-1-re c9224-0-re 1f830-0 1f830-1" color="71,151,98" id="route_ECF08A09-CCDF-4F7F-B460-9400837C9224-KM-25-GEGEN-033484D1-4284-4E64-848D-FCE431E1F830-KM-45-IN"/>
	<route edges="fafb1-1 fafb1-2 fafb1-3" color="57,175,141" id="route_DD2606F4-1F38-4305-BA1C-7CD870AFAFB1-KM-11.0-IN-DD2606F4-1F38-4305-BA1C-7CD870AFAFB1-KM-1246.872029481161-IN"/>
	<route edges="fafb1-3 fafb1-4 cfc05-0 cfc05-1" color="112,131,228" id="route_DD2606F4-1F38-4305-BA1C-7CD870AFAFB1-KM-1246.872029481161-IN-CCCD69D9-B9CE-4572-8C03-E2323B9CFC05-KM-45-IN"/>
	<route edges="fafb1-3-re fafb1-2-re fafb1-1-re" color="32,199,101" id="route_DD2606F4-1F38-4305-BA1C-7CD870AFAFB1-KM-1226.872029481161-GEGEN-DD2606F4-1F38-4305-BA1C-7CD870AFAFB1-KM-5-GEGEN"/>
	<route edges="be7aa-1 be7aa-2 be7aa-3" color="186,158,160" id="route_2F7E2FC8-3C2C-4E91-A190-D7841FBBE7AA-KM-45-IN-2F7E2FC8-3C2C-4E91-A190-D7841FBBE7AA-KM-1615.0764173282626-IN"/>
	<route edges="be7aa-3 be7aa-4 e367d-0 9a295-0 9a295-1" color="136,152,129" id="route_2F7E2FC8-3C2C-4E91-A190-D7841FBBE7AA-KM-1615.0764173282626-IN-C2379FC5-3576-4B4A-9A19-E688BEC9A295-KM-45-IN"/>
	<route edges="be7aa-3 be7aa-4 e367d-0 f6a32-0 f6a32-1" color="45,188,28" id="route_2F7E2FC8-3C2C-4E91-A190-D7841FBBE7AA-KM-1615.0764173282626-IN-3D0F2338-751F-4F84-B762-41ACFB4F6A32-KM-45-IN"/>
	<route edges="be7aa-3-re be7aa-2-re be7aa-1-re" color="142,82,130" id="route_2F7E2FC8-3C2C-4E91-A190-D7841FBBE7AA-KM-1595.0764173282626-GEGEN-2F7E2FC8-3C2C-4E91-A190-D7841FBBE7AA-KM-25-GEGEN"/>
	<route edges="be7aa-1-re be7aa-0-re 41771-0 b9ab8-4-re b9ab8-3-re" color="7,194,110" id="route_2F7E2FC8-3C2C-4E91-A190-D7841FBBE7AA-KM-25-GEGEN-F25D943F-ECCB-4FBA-A007-DFF7D53B9AB8-KM-191.28309988659058-GEGEN"/>
	<route edges="be7aa-1-re be7aa-0-re 41771-0 f6aea-0-re 46a05-4-re 46a05-3-re" color="10,98,65" id="route_2F7E2FC8-3C2C-4E91-A190-D7841FBBE7AA-KM-25-GEGEN-740668A8-88D0-466E-AF51-2FC0FE946A05-KM-107.93993372271524-GEGEN"/>
	<route edges="8c456-1 8c456-2 8c456-3" color="21,201,59" id="route_E8380410-D543-4032-9138-BD110E78C456-KM-45-IN-E8380410-D543-4032-9138-BD110E78C456-KM-1010.0-IN"/>
	<route edges="8c456-3 8c456-4 8c456-5" color="96,116,175" id="route_E8380410-D543-4032-9138-BD110E78C456-KM-1010.0-IN-E8380410-D543-4032-9138-BD110E78C456-KM-2010.0-IN"/>
	<route edges="8c456-5 8c456-6 8c456-7" color="238,236,151" id="route_E8380410-D543-4032-9138-BD110E78C456-KM-2010.0-IN-E8380410-D543-4032-9138-BD110E78C456-KM-3170.0135601901507-IN"/>
	<route edges="8c456-7 8c456-8 af1b2-0 af1b2-1" color="93,2,231" id="route_E8380410-D543-4032-9138-BD110E78C456-KM-3170.0135601901507-IN-0C0E4C3A-AFDF-4313-85A2-04AB6D5AF1B2-KM-45-IN"/>
	<route edges="8c456-7 8c456-8 765f5-0 765f5-1" color="120,109,39" id="route_E8380410-D543-4032-9138-BD110E78C456-KM-3170.0135601901507-IN-B15CA9BF-CCAC-414D-9EE2-52CD3C4765F5-KM-45-IN"/>
	<route edges="8c456-7-re 8c456-6-re 8c456-5-re" color="47,153,147" id="route_E8380410-D543-4032-9138-BD110E78C456-KM-3150.0135601901507-GEGEN-E8380410-D543-4032-9138-BD110E78C456-KM-1990.0-GEGEN"/>
	<route edges="8c456-5-re 8c456-4-re 8c456-3-re" color="17,62,166" id="route_E8380410-D543-4032-9138-BD110E78C456-KM-1990.0-GEGEN-E8380410-D543-4032-9138-BD110E78C456-KM-990.0-GEGEN"/>
	<route edges="8c456-3-re 8c456-2-re 8c456-1-re" color="189,129,133" id="route_E8380410-D543-4032-9138-BD110E78C456-KM-990.0-GEGEN-E8380410-D543-4032-9138-BD110E78C456-KM-25-GEGEN"/>
	<route edges="8c456-1-re 8c456-0-re 41771-0 b9ab8-4-re b9ab8-3-re" color="15,115,241" id="route_E8380410-D543-4032-9138-BD110E78C456-KM-25-GEGEN-F25D943F-ECCB-4FBA-A007-DFF7D53B9AB8-KM-191.28309988659058-GEGEN"/>
	<route edges="8c456-1-re 8c456-0-re 41771-0 f6aea-0-re 46a05-4-re 46a05-3-re" color="183,196,222" id="route_E8380410-D543-4032-9138-BD110E78C456-KM-25-GEGEN-740668A8-88D0-466E-AF51-2FC0FE946A05-KM-107.93993372271524-GEGEN"/>
	<route edges="b17e9-1 b17e9-2 b17e9-3" color="105,239,121" id="route_AA5F81A6-9999-4CA3-BEF5-0F05FDCB17E9-KM-45-IN-AA5F81A6-9999-4CA3-BEF5-0F05FDCB17E9-KM-152.73211692197054-IN"/>
	<route edges="b17e9-3 b17e9-4 7ac56-0 7ac56-1" color="81,102,90" id="route_AA5F81A6-9999-4CA3-BEF5-0F05FDCB17E9-KM-152.73211692197054-IN-80997BA3-D91D-4DE3-890C-3FDA1677AC56-KM-45-IN"/>
	<route edges="b17e9-3-re b17e9-2-re b17e9-1-re" color="51,143,190" id="route_AA5F81A6-9999-4CA3-BEF5-0F05FDCB17E9-KM-132.73211692197054-GEGEN-AA5F81A6-9999-4CA3-BEF5-0F05FDCB17E9-KM-25-GEGEN"/>
	<route edges="b17e9-1-re b17e9-0-re e367d-0 9a295-0 9a295-1" color="168,115,240" id="route_AA5F81A6-9999-4CA3-BEF5-0F05FDCB17E9-KM-25-GEGEN-C2379FC5-3576-4B4A-9A19-E688BEC9A295-KM-45-IN"/>