<edges>
<!-- Track 76808670-4e69-418f-8f5f-10e82b422787 -->
<edge id="22787-0" from="b4c43" to="76808670-4e69-418f-8f5f-10e82b422787-km-25-in" shape="-2502198.1259712474,3467432.6135298666 -2502222.669270449,3467437.370258187" priority="-1" numLanes="1" speed="110.0" allow="rail rail_electric" spreadType="center" />
<edge id="22787-0-re" from="76808670-4e69-418f-8f5f-10e82b422787-km-25-in" to="b4c43" shape="-2502222.669270449,3467437.370258187 -2502198.1259712474,3467432.6135298666" priority="-1" numLanes="1" speed="110.0" allow="rail rail_electric" spreadType="center" />
<!-- Track 76808670-4e69-418f-8f5f-10e82b422787 -->
<edge id="22787-1" from="76808670-4e69-418f-8f5f-10e82b422787-km-25-in" to="76808670-4e69-418f-8f5f-10e82b422787-km-45-gegen" shape="-2502222.669270449,3467437.370258187 -2502242.30390981,3467441.1756408433" priority="-1" numLanes="1" speed="110.0" allow="rail rail_electric" spreadType="center" />
<edge id="22787-1-re" from="76808670-4e69-418f-8f5f-10e82b422787-km-45-gegen" to="76808670-4e69-418f-8f5f-10e82b422787-km-25-in" shape="-2502242.30390981,3467441.1756408433 -2502222.669270449,3467437.370258187" priority="-1" numLanes="1" speed="110.0" allow="rail rail_electric" spreadType="center" />
<!-- Track 76808670-4e69-418f-8f5f-10e82b422787 -->
<edge id="22787-2" from="76808670-4e69-418f-8f5f-10e82b422787-km-45-gegen" to="76808670-4e69-418f-8f5f-10e82b422787-km-301.5762856547864-in" shape="-2502242.30390981,3467441.1756408433 -2502326.879854113,3467457.567275325 -2502493.9023487107,3467491.459708974" priority="-1" numLanes="1" speed="110.0" allow="rail rail_electric" spreadType="center" />
<edge id="22787-2-re" from="76808670-4e69-418f-8f5f-10e82b422787-km-301.5762856547864-in" to="76808670-4e69-418f-8f5f-10e82b422787-km-45-gegen" shape="-2502493.9023487107,3467491.459708974 -2502326.879854113,3467457.567275325 -2502242.30390981,3467441.1756408433" priority="-1" numLanes="1" speed="110.0" allow="rail rail_electric" spreadType="center" />
<!-- Track 76808670-4e69-418f-8f5f-10e82b422787 -->
<edge id="22787-3" from="76808670-4e69-418f-8f5f-10e82b422787-km-301.5762856547864-in" to="76808670-4e69-418f-8f5f-10e82b422787-km-321.5762856547864-gegen" shape="-2502493.9023487107,3467491.459708974 -2502513.502873321,3467495.4370743074" priority="-1" numLanes="1" speed="110.0" allow="rail rail_electric" spreadType="center" />
<edge id="22787-3-re" from="76808670-4e69-418f-8f5f-10e82b422787-km-321.5762856547864-gegen" to="76808670-4e69-418f-8f5f-10e82b422787-km-301.5762856547864-in" shape="-2502513.502873321,3467495.4370743074 -2502493.9023487107,3467491.459708974" priority="-1" numLanes="1" speed="110.0" allow="rail rail_electric" spreadType="center" />
<!-- Track 76808670-4e69-418f-8f5f-10e82b422787 -->
<edge id="22787-4" from="76808670-4e69-418f-8f5f-10e82b422787-km-321.5762856547864-gegen" to="98c63" shape="-2502513.502873321,3467495.4370743074 -2502538.003529084,3467500.4087809734" priority="-1" numLanes="1" speed="110.0" allow="rail rail_electric" spreadType="center" />
<edge id="22787-4-re" from="98c63" to="76808670-4e69-418f-8f5f-10e82b422787-km-321.5762856547864-gegen" shape="-2502538.003529084,3467500.4087809734 -2502513.502873321,3467495.4370743074" priority="-1" numLanes="1" speed="110.0" allow="rail rail_electric" spreadType="center" />
<!-- Track 7da6018c-544a-4f56-9d8b-ee6498ff6d82 -->
<edge id="f6d82-0" from="b4c43" to="7da6018c-544a-4f56-9d8b-ee6498ff6d82-km-25-in" shape="-2502198.1259712474,3467432.6135298666 -2502173.6116686147,3467427.7095553116" priority="-1" numLanes="1" speed="110.0" allow="rail rail_electric" spreadType="center" />
<edge id="f6d82-0-re" from="7da6018c-544a-4f56-9d8b-ee6498ff6d82-km-25-in" to="b4c43" shape="-2502173.6116686147,3467427.7095553116 -2502198.1259712474,3467432.6135298666" priority="-1" numLanes="1" speed="110.0" allow="rail rail_electric" spreadType="center" />
<!-- Track 7da6018c-544a-4f56-9d8b-ee6498ff6d82 -->
<edge id="f6d82-1" from="7da6018c-544a-4f56-9d8b-ee6498ff6d82-km-25-in" to="7da6018c-544a-4f56-9d8b-ee6498ff6d82-km-45-gegen" shape="-2502173.6116686147,3467427.7095553116 -2502154.000226509,3467423.7863756674" priority="-1" numLanes="1" speed="110.0" allow="rail rail_electric" spreadType="center" />
<edge id="f6d82-1-re" from="7da6018c-544a-4f56-9d8b-ee6498ff6d82-km-45-gegen" to="7da6018c-544a-4f56-9d8b-ee6498ff6d82-km-25-in" shape="-2502154.000226509,3467423.7863756674 -2502173.6116686147,3467427.7095553116" priority="-1" numLanes="1" speed="110.0" allow="rail rail_electric" spreadType="center" />
<!-- Track 7da6018c-544a-4f56-9d8b-ee6498ff6d82 -->
<edge id="f6d82-2" from="7da6018c-544a-4f56-9d8b-ee6498ff6d82-km-45-gegen" to="7da6018c-544a-4f56-9d8b-ee6498ff6d82-km-145.5616561823125-in" shape="-2502154.000226509,3467423.7863756674 -2502055.392271593,3467404.0603035414" priority="-1" numLanes="1" speed="110.0" allow="rail rail_electric" spreadType="center" />
<edge id="f6d82-2-re" from="7da6018c-544a-4f56-9d8b-ee6498ff6d82-km-145.5616561823125-in" to="7da6018c-544a-4f56-9d8b-ee6498ff6d82-km-45-gegen" shape="-2502055.392271593,3467404.0603035414 -2502154.000226509,3467423.7863756674" priority="-1" numLanes="1" speed="110.0" allow="rail rail_electric" spreadType="center" />
<!-- Track 7da6018c-544a-4f56-9d8b-ee6498ff6d82 -->
<edge id="f6d82-3" from="7da6018c-544a-4f56-9d8b-ee6498ff6d82-km-145.5616561823125-in" to="7da6018c-544a-4f56-9d8b-ee6498ff6d82-km-165.5616561823125-gegen" shape="-2502055.392271593,3467404.0603035414 -2502035.7808294874,3467400.137123897" priority="-1" numLanes="1" speed="110.0" allow="rail rail_electric" spreadType="center" />
<edge id="f6d82-3-re" from="7da6018c-544a-4f56-9d8b-ee6498ff6d82-km-165.5616561823125-gegen" to="7da6018c-544a-4f56-9d8b-ee6498ff6d82-km-145.5616561823125-in" shape="-2502035.7808294874,3467400.137123897 -2502055.392271593,3467404.0603035414" priority="-1" numLanes="1" speed="110.0" allow="rail rail_electric" spreadType="center" />
<!-- Track 7da6018c-544a-4f56-9d8b-ee6498ff6d82 -->
<edge id="f6d82-4" from="7da6018c-544a-4f56-9d8b-ee6498ff6d82-km-165.5616561823125-gegen" to="8b6a4" shape="-2502035.7808294874,3467400.137123897 -2502011.2665268546,3467395.2331493422" priority="-1" numLanes="1" speed="110.0" allow="rail rail_electric" spreadType="center" />
<edge id="f6d82-4-re" from="8b6a4" to="7da6018c-544a-4f56-9d8b-ee6498ff6d82-km-165.5616561823125-gegen" shape="-2502011.2665268546,3467395.2331493422 -2502035.7808294874,3467400.137123897" priority="-1" numLanes="1" speed="110.0" allow="rail rail_electric" spreadType="center" />
<!-- Track f05c185b-d2db-481b-87ad-fd205ea1daa3 -->
<edge id="1daa3-0" from="b4c43" to="f05c185b-d2db-481b-87ad-fd205ea1daa3-km-25-in" shape="-2502198.1259712474,3467432.6135298666 -2502173.3051357637,3467429.6258675884" priority="-1" numLanes="1" speed="110.0" allow="rail rail_electric" spreadType="center" />
<edge id="1daa3-0-re" from="f05c185b-d2db-481b-87ad-fd205ea1daa3-km-25-in" to="b4c43" shape="-2502173.3051357637,3467429.6258675884 -2502198.1259712474,3467432.6135298666" priority="-1" numLanes="1" speed="110.0" allow="rail rail_electric" spreadType="center" />
<!-- Track f05c185b-d2db-481b-87ad-fd205ea1daa3 -->
<edge id="1daa3-1" from="f05c185b-d2db-481b-87ad-fd205ea1daa3-km-25-in" to="f05c185b-d2db-481b-87ad-fd205ea1daa3-km-45-gegen" shape="-2502173.3051357637,3467429.6258675884 -2502153.4484673766,3467427.235737766" priority="-1" numLanes="1" speed="110.0" allow="rail rail_electric" spreadType="center" />
<edge id="1daa3-1-re" from="f05c185b-d2db-481b-87ad-fd205ea1daa3-km-45-gegen" to="f05c185b-d2db-481b-87ad-fd205ea1daa3-km-25-in" shape="-2502153.4484673766,3467427.235737766 -2502173.3051357637,3467429.6258675884" priority="-1" numLanes="1" speed="110.0" allow="rail rail_electric" spreadType="center" />
<!-- Track f05c185b-d2db-481b-87ad-fd205ea1daa3 -->
<edge id="1daa3-2" from="f05c185b-d2db-481b-87ad-fd205ea1daa3-km-45-gegen" to="f05c185b-d2db-481b-87ad-fd205ea1daa3-km-832.2588211144425-in" shape="-2502153.4484673766,3467427.235737766 -2501986.5440240223,3467407.1455957647 -2501941.394594235,3467406.669230707 -2501900.14020605,3467408.084832847 -2501830.2628213717,3467412.3299855366 -2501757.781161777,3467419.529616246 -2501699.9119592384,3467418.698338378 -2501637.2374989176,3467415.157012349 -2501580.245985288,3467407.526348047 -2501372.6098940773,3467366.1183687863" priority="-1" numLanes="1" speed="110.0" allow="rail rail_electric" spreadType="center" />
<edge id="1daa3-2-re" from="f05c185b-d2db-481b-87ad-fd205ea1daa3-km-832.2588211144425-in" to="f05c185b-d2db-481b-87ad-fd205ea1daa3-km-45-gegen" shape="-2501372.6098940773,3467366.1183687863 -2501580.245985288,3467407.526348047 -2501637.2374989176,3467415.157012349 -2501699.9119592384,3467418.698338378 -2501757.781161777,3467419.529616246 -2501830.2628213717,3467412.3299855366 -2501900.14020605,3467408.084832847 -2501941.394594235,3467406.669230707 -2501986.5440240223,3467407.1455957647 -2502153.4484673766,3467427.235737766" priority="-1" numLanes="1" speed="110.0" allow="rail rail_electric" spreadType="center" />
<!-- Track f05c185b-d2db-481b-87ad-fd205ea1daa3 -->
<edge id="1daa3-3" from="f05c185b-d2db-481b-87ad-fd205ea1daa3-km-832.2588211144425-in" to="f05c185b-d2db-481b-87ad-fd205ea1daa3-km-852.2588211144425-gegen" shape="-2501372.6098940773,3467366.1183687863 -2501352.99611748,3467362.206877052" priority="-1" numLanes="1" speed="110.0" allow="rail rail_electric" spreadType="center" />
<edge id="1daa3-3-re" from="f05c185b-d2db-481b-87ad-fd205ea1daa3-km-852.2588211144425-gegen" to="f05c185b-d2db-481b-87ad-fd205ea1daa3-km-832.2588211144425-in" shape="-2501352.99611748,3467362.206877052 -2501372.6098940773,3467366.1183687863" priority="-1" numLanes="1" speed="110.0" allow="rail rail_electric" spreadType="center" />
<!-- Track f05c185b-d2db-481b-87ad-fd205ea1daa3 -->
<edge id="1daa3-4" from="f05c185b-d2db-481b-87ad-fd205ea1daa3-km-852.2588211144425-gegen" to="6be1f" shape="-2501352.99611748,3467362.206877052 -2501328.4788967334,3467357.3175123837" priority="-1" numLanes="1" speed="110.0" allow="rail rail_electric" spreadType="center" />
<edge id="1daa3-4-re" from="6be1f" to="f05c185b-d2db-481b-87ad-fd205ea1daa3-km-852.2588211144425-gegen" shape="-2501328.4788967334,3467357.3175123837 -2501352.99611748,3467362.206877052" priority="-1" numLanes="1" speed="110.0" allow="rail rail_electric" spreadType="center" />
<!-- Track 9aef8f60-4788-4055-8409-e04f2d489a43 -->
<edge id="89a43-0" from="8b6a4" to="9aef8f60-4788-4055-8409-e04f2d489a43-km-25-in" shape="-2502011.2665268546,3467395.2331493422 -2501986.4846162554,3467391.938167242" priority="-1" numLanes="1" speed="110.0" allow="rail rail_electric" spreadType="center" />
<edge id="89a43-0-re" from="9aef8f60-4788-4055-8409-e04f2d489a43-km-25-in" to="8b6a4" shape="-2501986.4846162554,3467391.938167242 -2502011.2665268546,3467395.2331493422" priority="-1" numLanes="1" speed="110.0" allow="rail rail_electric" spreadType="center" />
<!-- Track 9aef8f60-4788-4055-8409-e04f2d489a43 -->
<edge id="89a43-1" from="9aef8f60-4788-4055-8409-e04f2d489a43-km-25-in" to="9aef8f60-4788-4055-8409-e04f2d489a43-km-45-gegen" shape="-2501986.4846162554,3467391.938167242 -2501966.6590877757,3467389.3021815615" priority="-1" numLanes="1" speed="110.0" allow="rail rail_electric" spreadType="center" />
<edge id="89a43-1-re" from="9aef8f60-4788-4055-8409-e04f2d489a43-km-45-gegen" to="9aef8f60-4788-4055-8409-e04f2d489a43-km-25-in" shape="-2501966.6590877757,3467389.3021815615 -2501986.4846162554,3467391.938167242" priority="-1" numLanes="1" speed="110.0" allow="rail rail_electric" spreadType="center" />
<!-- Track 9aef8f60-4788-4055-8409-e04f2d489a43 -->
<edge id="89a43-2" from="9aef8f60-4788-4055-8409-e04f2d489a43-km-45-gegen" to="9aef8f60-4788-4055-8409-e04f2d489a43-km-768.1457216628645-in" shape="-2501966.6590877757,3467389.3021815615 -2501902.187891895,3467380.730145294 -2501866.152929621,3467378.21362713 -2501673.0765554016,3467367.3538590707 -2501592.416926997,3467359.140942909 -2501551.447303158,3467353.074182581 -2501505.253120913,3467345.780980693 -2501250.8801331185,3467295.249607361" priority="-1" numLanes="1" speed="110.0" allow="rail rail_electric" spreadType="center" />
<edge id="89a43-2-re" from="9aef8f60-4788-4055-8409-e04f2d489a43-km-768.1457216628645-in" to="9aef8f60-4788-4055-8409-e04f2d489a43-km-45-gegen" shape="-2501250.8801331185,3467295.249607361 -2501505.253120913,3467345.780980693 -2501551.447303158,3467353.074182581 -2501592.416926997,3467359.140942909 -2501673.0765554016,3467367.3538590707 -2501866.152929621,3467378.21362713 -2501902.187891895,3467380.730145294 -2501966.6590877757,3467389.3021815615" priority="-1" numLanes="1" speed="110.0" allow="rail rail_electric" spreadType="center" />
<!-- Track 9aef8f60-4788-4055-8409-e04f2d489a43 -->
<edge id="89a43-3" from="9aef8f60-4788-4055-8409-e04f2d489a43-km-768.1457216628645-in" to="9aef8f60-4788-4055-8409-e04f2d489a43-km-788.1457216628645-gegen" shape="-2501250.8801331185,3467295.249607361 -2501231.263445984,3467291.352738634" priority="-1" numLanes="1" speed="110.0" allow="rail rail_electric" spreadType="center" />
<edge id="89a43-3-re" from="9aef8f60-4788-4055-8409-e04f2d489a43-km-788.1457216628645-gegen" to="9aef8f60-4788-4055-8409-e04f2d489a43-km-768.1457216628645-in" shape="-2501231.263445984,3467291.352738634 -2501250.8801331185,3467295.249607361" priority="-1" numLanes="1" speed="110.0" allow="rail rail_electric" spreadType="center" />
<!-- Track 9aef8f60-4788-4055-8409-e04f2d489a43 -->
<edge id="89a43-4" from="9aef8f60-4788-4055-8409-e04f2d489a43-km-788.1457216628645-gegen" to="294ea" shape="-2501231.263445984,3467291.352738634 -2501206.7425870663,3467286.4816527255" priority="-1" numLanes="1" speed="110.0" allow="rail rail_electric" spreadType="center" />
<edge id="89a43-4-re" from="294ea" to="9aef8f60-4788-4055-8409-e04f2d489a43-km-788.1457216628645-gegen" shape="-2501206.7425870663,3467286.4816527255 -2501231.263445984,3467291.352738634" priority="-1" numLanes="1" speed="110.0" allow="rail rail_electric" spreadType="center" />
<!-- Track 868e7230-0faf-4112-8e97-3c891c8e49bb -->
<edge id="e49bb-0" from="8b6a4" to="868e7230-0faf-4112-8e97-3c891c8e49bb-km-25-in" shape="-2502011.2665268546,3467395.2331493422 -2501986.867727038,3467389.7835101327" priority="-1" numLanes="1" speed="110.0" allow="rail rail_electric" spreadType="center" />
<edge id="e49bb-0-re" from="868e7230-0faf-4112-8e97-3c891c8e49bb-km-25-in" to="8b6a4" shape="-2501986.867727038,3467389.7835101327 -2502011.2665268546,3467395.2331493422" priority="-1" numLanes="1" speed="110.0" allow="rail rail_electric" spreadType="center" />
<!-- Track 868e7230-0faf-4112-8e97-3c891c8e49bb -->
<edge id="e49bb-1" from="868e7230-0faf-4112-8e97-3c891c8e49bb-km-25-in" to="868e7230-0faf-4112-8e97-3c891c8e49bb-km-45-gegen" shape="-2501986.867727038,3467389.7835101327 -2501967.348687185,3467385.4237987646" priority="-1" numLanes="1" speed="110.0" allow="rail rail_electric" spreadType="center" />
<edge id="e49bb-1-re" from="868e7230-0faf-4112-8e97-3c891c8e49bb-km-45-gegen" to="868e7230-0faf-4112-8e97-3c891c8e49bb-km-25-in" shape="-2501967.348687185,3467385.4237987646 -2501986.867727038,3467389.7835101327" priority="-1" numLanes="1" speed="110.0" allow="rail rail_electric" spreadType="center" />
<!-- Track 868e7230-0faf-4112-8e97-3c891c8e49bb -->
<edge id="e49bb-2" from="868e7230-0faf-4112-8e97-3c891c8e49bb-km-45-gegen" to="868e7230-0faf-4112-8e97-3c891c8e49bb-km-218.52550007798908-in" shape="-2501967.348687185,3467385.4237987646 -2501807.904326056,3467349.8108076043 -2501798.030984935,3467347.447093896" priority="-1" numLanes="1" speed="110.0" allow="rail rail_electric" spreadType="center" />
<edge id="e49bb-2-re" from="868e7230-0faf-4112-8e97-3c891c8e49bb-km-218.52550007798908-in" to="868e7230-0faf-4112-8e97-3c891c8e49bb-km-45-gegen" shape="-2501798.030984935,3467347.447093896 -2501807.904326056,3467349.8108076043 -2501967.348687185,3467385.4237987646" priority="-1" numLanes="1" speed="110.0" allow="rail rail_electric" spreadType="center" />
<!-- Track 868e7230-0faf-4112-8e97-3c891c8e49bb -->
<edge id="e49bb-3" from="868e7230-0faf-4112-8e97-3c891c8e49bb-km-218.52550007798908-in" to="868e7230-0faf-4112-8e97-3c891c8e49bb-km-238.52550007798908-gegen" shape="-2501798.030984935,3467347.447093896 -2501778.5806097006,3467342.790603453" priority="-1" numLanes="1" speed="110.0" allow="rail rail_electric" spreadType="center" />
<edge id="e49bb-3-re" from="868e7230-0faf-4112-8e97-3c891c8e49bb-km-238.52550007798908-gegen" to="868e7230-0faf-4112-8e97-3c891c8e49bb-km-218.52550007798908-in" shape="-2501778.5806097006,3467342.790603453 -2501798.030984935,3467347.447093896" priority="-1" numLanes="1" speed="110.0" allow="rail rail_electric" spreadType="center" />
<!-- Track 868e7230-0faf-4112-8e97-3c891c8e49bb -->
<edge id="e49bb-4" from="868e7230-0faf-4112-8e97-3c891c8e49bb-km-238.52550007798908-gegen" to="e7301" shape="-2501778.5806097006,3467342.790603453 -2501754.2676406577,3467336.9699903987" priority="-1" numLanes="1" speed="110.0" allow="rail rail_electric" spreadType="center" />
<edge id="e49bb-4-re" from="e7301" to="868e7230-0faf-4112-8e97-3c891c8e49bb-km-238.52550007798908-gegen" shape="-2501754.2676406577,3467336.9699903987 -2501778.5806097006,3467342.790603453" priority="-1" numLanes="1" speed="110.0" allow="rail rail_electric" spreadType="center" />
<!-- Track 35704b82-d5ee-403b-89c2-b6acf2c90162 -->
<edge id="90162-0" from="294ea" to="35704b82-d5ee-403b-89c2-b6acf2c90162-km-25-in" shape="-2501206.7425870663,3467286.4816527255 -2501182.2386736786,3467281.5260267616" priority="-1" numLanes="1" speed="110.0" allow="rail rail_electric" spreadType="center" />
<edge id="90162-0-re" from="35704b82-d5ee-403b-89c2-b6acf2c90162-km-25-in" to="294ea" shape="-2501182.2386736786,3467281.5260267616 -2501206.7425870663,3467286.4816527255" priority="-1" numLanes="1" speed="110.0" allow="rail rail_electric" spreadType="center" />
<!-- Track 35704b82-d5ee-403b-89c2-b6acf2c90162 -->
<edge id="90162-1" from="35704b82-d5ee-403b-89c2-b6acf2c90162-km-25-in" to="35704b82-d5ee-403b-89c2-b6acf2c90162-km-45-gegen" shape="-2501182.2386736786,3467281.5260267616 -2501162.6355429688,3467277.5615259903" priority="-1" numLanes="1" speed="110.0" allow="rail rail_electric" spreadType="center" />
<edge id="90162-1-re" from="35704b82-d5ee-403b-89c2-b6acf2c90162-km-45-gegen" to="35704b82-d5ee-403b-89c2-b6acf2c90162-km-25-in" shape="-2501162.6355429688,3467277.5615259903 -2501182.2386736786,3467281.5260267616" priority="-1" numLanes="1" speed="110.0" allow="rail rail_electric" spreadType="center" />
<!-- Track 35704b82-d5ee-403b-89c2-b6acf2c90162 -->
<edge id="90162-2" from="35704b82-d5ee-403b-89c2-b6acf2c90162-km-45-gegen" to="35704b82-d5ee-403b-89c2-b6acf2c90162-km-149.7673894741766-in" shape="-2501162.6355429688,3467277.5615259903 -2501059.947101468,3467256.7940061716" priority="-1" numLanes="1" speed="110.0" allow="rail rail_electric" spreadType="center" />
<edge id="90162-2-re" from="35704b82-d5ee-403b-89c2-b6acf2c90162-km-149.7673894741766-in" to="35704b82-d5ee-403b-89c2-b6acf2c90162-km-45-gegen" shape="-2501059.947101468,3467256.7940061716 -2501162.6355429688,3467277.5615259903" priority="-1" numLanes="1" speed="110.0" allow="rail rail_electric" spreadType="center" />
<!-- Track 35704b82-d5ee-403b-89c2-b6acf2c90162 -->
<edge id="90162-3" from="35704b82-d5ee-403b-89c2-b6acf2c90162-km-149.7673894741766-in" to="35704b82-d5ee-403b-89c2-b6acf2c90162-km-169.7673894741766-gegen" shape="-2501059.947101468,3467256.7940061716 -2501040.343970758,3467252.8295054003" priority="-1" numLanes="1" speed="110.0" allow="rail rail_electric" spreadType="center" />
<edge id="90162-3-re" from="35704b82-d5ee-403b-89c2-b6acf2c90162-km-169.7673894741766-gegen" to="35704b82-d5ee-403b-89c2-b6acf2c90162-km-149.7673894741766-in" shape="-2501040.343970758,3467252.8295054003 -2501059.947101468,3467256.7940061716" priority="-1" numLanes="1" speed="110.0" allow="rail rail_electric" spreadType="center" />
<!-- Track 35704b82-d5ee-403b-89c2-b6acf2c90162 -->
<edge id="90162-4" from="35704b82-d5ee-403b-89c2-b6acf2c90162-km-169.7673894741766-gegen" to="b8442" shape="-2501040.343970758,3467252.8295054003 -2501015.8400573703,3467247.8738794364" priority="-1" numLanes="1" speed="110.0" allow="rail rail_electric" spreadType="center" />
<edge id="90162-4-re" from="b8442" to="35704b82-d5ee-403b-89c2-b6acf2c90162-km-169.7673894741766-gegen" shape="-2501015.8400573703,3467247.8738794364 -2501040.343970758,3467252.8295054003" priority="-1" numLanes="1" speed="110.0" allow="rail rail_electric" spreadType="center" />
<!-- Track f44b7b55-38eb-405f-9031-e7199208ecd9 -->
<edge id="8ecd9-0" from="294ea" to="f44b7b55-38eb-405f-9031-e7199208ecd9-km-25-in" shape="-2501206.7425870663,3467286.4816527255 -2501231.489801964,3467290.0278274002" priority="-1" numLanes="1" speed="110.0" allow="rail rail_electric" spreadType="center" />
<edge id="8ecd9-0-re" from="f44b7b55-38eb-405f-9031-e7199208ecd9-km-25-in" to="294ea" shape="-2501231.489801964,3467290.0278274002 -2501206.7425870663,3467286.4816527255" priority="-1" numLanes="1" speed="110.0" allow="rail rail_electric" spreadType="center" />
<!-- Track f44b7b55-38eb-405f-9031-e7199208ecd9 -->
<edge id="8ecd9-1" from="f44b7b55-38eb-405f-9031-e7199208ecd9-km-25-in" to="f44b7b55-38eb-405f-9031-e7199208ecd9-km-45-gegen" shape="-2501231.489801964,3467290.0278274002 -2501251.2875738814,3467292.86476714" priority="-1" numLanes="1" speed="110.0" allow="rail rail_electric" spreadType="center" />
<edge id="8ecd9-1-re" from="f44b7b55-38eb-405f-9031-e7199208ecd9-km-45-gegen" to="f44b7b55-38eb-405f-9031-e7199208ecd9-km-25-in" shape="-2501251.2875738814,3467292.86476714 -2501231.489801964,3467290.0278274002" priority="-1" numLanes="1" speed="110.0" allow="rail rail_electric" spreadType="center" />
<!-- Track f44b7b55-38eb-405f-9031-e7199208ecd9 -->
<edge id="8ecd9-2" from="f44b7b55-38eb-405f-9031-e7199208ecd9-km-45-gegen" to="5d8a3" shape="-2501251.2875738814,3467292.86476714 -2501292.2642674847,3467298.736559732 -2501351.8286421327,3467306.9248945564 -2501777.896236745,3467364.0153826177" priority="-1" numLanes="1" speed="110.0" allow="rail rail_electric" spreadType="center" />
<edge id="8ecd9-2-re" from="5d8a3" to="f44b7b55-38eb-405f-9031-e7199208ecd9-km-45-gegen" shape="-2501777.896236745,3467364.0153826177 -2501351.8286421327,3467306.9248945564 -2501292.2642674847,3467298.736559732 -2501251.2875738814,3467292.86476714" priority="-1" numLanes="1" speed="110.0" allow="rail rail_electric" spreadType="center" />
<!-- Track 4a42f88b-2ec1-4ef2-ba87-47161d10a73d -->
<edge id="0a73d-0" from="b8442" to="4a42f88b-2ec1-4ef2-ba87-47161d10a73d-km-25-in" shape="-2501015.8400573703,3467247.8738794364 -2500991.319573685,3467243.0009050015" priority="-1" numLanes="1" speed="110.0" allow="rail rail_electric" spreadType="center" />
<edge id="0a73d-0-re" from="4a42f88b-2ec1-4ef2-ba87-47161d10a73d-km-25-in" to="b8442" shape="-2500991.319573685,3467243.0009050015 -2501015.8400573703,3467247.8738794364" priority="-1" numLanes="1" speed="110.0" allow="rail rail_electric" spreadType="center" />
<!-- Track 4a42f88b-2ec1-4ef2-ba87-47161d10a73d -->
<edge id="0a73d-1" from="4a42f88b-2ec1-4ef2-ba87-47161d10a73d-km-25-in" to="4a42f88b-2ec1-4ef2-ba87-47161d10a73d-km-45-gegen" shape="-2500991.319573685,3467243.0009050015 -2500971.703186737,3467239.102525453" priority="-1" numLanes="1" speed="110.0" allow="rail rail_electric" spreadType="center" />
<edge id="0a73d-1-re" from="4a42f88b-2ec1-4ef2-ba87-47161d10a73d-km-45-gegen" to="4a42f88b-2ec1-4ef2-ba87-47161d10a73d-km-25-in" shape="-2500971.703186737,3467239.102525453 -2500991.319573685,3467243.0009050015" priority="-1" numLanes="1" speed="110.0" allow="rail rail_electric" spreadType="center" />
<!-- Track 4a42f88b-2ec1-4ef2-ba87-47161d10a73d -->
<edge id="0a73d-2" from="4a42f88b-2ec1-4ef2-ba87-47161d10a73d-km-45-gegen" to="4a42f88b-2ec1-4ef2-ba87-47161d10a73d-km-664.7733628877847-in" shape="-2500971.703186737,3467239.102525453 -2500363.817481409,3467118.2969353376" priority="-1" numLanes="1" speed="110.0" allow="rail rail_electric" spreadType="center" />
<edge id="0a73d-2-re" from="4a42f88b-2ec1-4ef2-ba87-47161d10a73d-km-664.7733628877847-in" to="4a42f88b-2ec1-4ef2-ba87-47161d10a73d-km-45-gegen" shape="-2500363.817481409,3467118.2969353376 -2500971.703186737,3467239.102525453" priority="-1" numLanes="1" speed="110.0" allow="rail rail_electric" spreadType="center" />
<!-- Track 4a42f88b-2ec1-4ef2-ba87-47161d10a73d -->
<edge id="0a73d-3" from="4a42f88b-2ec1-4ef2-ba87-47161d10a73d-km-664.7733628877847-in" to="4a42f88b-2ec1-4ef2-ba87-47161d10a73d-km-684.7733628877847-gegen" shape="-2500363.817481409,3467118.2969353376 -2500344.2010944607,3467114.398555789" priority="-1" numLanes="1" speed="110.0" allow="rail rail_electric" spreadType="center" />
<edge id="0a73d-3-re" from="4a42f88b-2ec1-4ef2-ba87-47161d10a73d-km-684.7733628877847-gegen" to="4a42f88b-2ec1-4ef2-ba87-47161d10a73d-km-664.7733628877847-in" shape="-2500344.2010944607,3467114.398555789 -2500363.817481409,3467118.2969353376" priority="-1" numLanes="1" speed="110.0" allow="rail rail_electric" spreadType="center" />
<!-- Track 4a42f88b-2ec1-4ef2-ba87-47161d10a73d -->
<edge id="0a73d-4" from="4a42f88b-2ec1-4ef2-ba87-47161d10a73d-km-684.7733628877847-gegen" to="85586" shape="-2500344.2010944607,3467114.398555789 -2500319.680610776,3467109.5255813543" priority="-1" numLanes="1" speed="110.0" allow="rail rail_electric" spreadType="center" />
<edge id="0a73d-4-re" from="85586" to="4a42f88b-2ec1-4ef2-ba87-47161d10a73d-km-684.7733628877847-gegen" shape="-2500319.680610776,3467109.5255813543 -2500344.2010944607,3467114.398555789" priority="-1" numLanes="1" speed="110.0" allow="rail rail_electric" spreadType="center" />
<!-- Track ed1881a8-2783-4cdf-b362-b59f86db12bb -->
<edge id="b12bb-0" from="b8442" to="ed1881a8-2783-4cdf-b362-b59f86db12bb-km-25-in" shape="-2501015.8400573703,3467247.8738794364 -2501040.129426962,3467253.792200551" priority="-1" numLanes="1" speed="110.0" allow="rail rail_electric" spreadType="center" />
<edge id="b12bb-0-re" from="ed1881a8-2783-4cdf-b362-b59f86db12bb-km-25-in" to="b8442" shape="-2501040.129426962,3467253.792200551 -2501015.8400573703,3467247.8738794364" priority="-1" numLanes="1" speed="110.0" allow="rail rail_electric" spreadType="center" />
<!-- Track ed1881a8-2783-4cdf-b362-b59f86db12bb -->
<edge id="b12bb-1" from="ed1881a8-2783-4cdf-b362-b59f86db12bb-km-25-in" to="ed1881a8-2783-4cdf-b362-b59f86db12bb-km-45-gegen" shape="-2501040.129426962,3467253.792200551 -2501059.560922636,3467258.526857442" priority="-1" numLanes="1" speed="110.0" allow="rail rail_electric" spreadType="center" />
<edge id="b12bb-1-re" from="ed1881a8-2783-4cdf-b362-b59f86db12bb-km-45-gegen" to="ed1881a8-2783-4cdf-b362-b59f86db12bb-km-25-in" shape="-2501059.560922636,3467258.526857442 -2501040.129426962,3467253.792200551" priority="-1" numLanes="1" speed="110.0" allow="rail rail_electric" spreadType="center" />
<!-- Track ed1881a8-2783-4cdf-b362-b59f86db12bb -->
<edge id="b12bb-2" from="ed1881a8-2783-4cdf-b362-b59f86db12bb-km-45-gegen" to="9d9cd" shape="-2501059.560922636,3467258.526857442 -2501115.083613891,3467272.0554554053 -2501236.739845654,3467305.6705410834 -2501274.012567208,3467312.6615284346 -2501684.7521156543,3467394.7215760183" priority="-1" numLanes="1" speed="110.0" allow="rail rail_electric" spreadType="center" />
<edge id="b12bb-2-re" from="9d9cd" to="ed1881a8-2783-4cdf-b362-b59f86db12bb-km-45-gegen" shape="-2501684.7521156543,3467394.7215760183 -2501274.012567208,3467312.6615284346 -2501236.739845654,3467305.6705410834 -2501115.083613891,3467272.0554554053 -2501059.560922636,3467258.526857442" priority="-1" numLanes="1" speed="110.0" allow="rail rail_electric" spreadType="center" />
<!-- Track be1ebca2-deec-4e15-af84-9ecda912f17f -->
<edge id="2f17f-0" from="9c3c5" to="be1ebca2-deec-4e15-af84-9ecda912f17f-km-25-in" shape="-2498540.5476426897,3466763.493575601 -2498516.147492651,3466758.0499850498" priority="-1" numLanes="1" speed="110.0" allow="rail rail_electric" spreadType="center" />
<edge id="2f17f-0-re" from="be1ebca2-deec-4e15-af84-9ecda912f17f-km-25-in" to="9c3c5" shape="-2498516.147492651,3466758.0499850498 -2498540.5476426897,3466763.493575601" priority="-1" numLanes="1" speed="110.0" allow="rail rail_electric" spreadType="center" />
<!-- Track be1ebca2-deec-4e15-af84-9ecda912f17f -->
<edge id="2f17f-1" from="be1ebca2-deec-4e15-af84-9ecda912f17f-km-25-in" to="be1ebca2-deec-4e15-af84-9ecda912f17f-km-45-gegen" shape="-2498516.147492651,3466758.0499850498 -2498496.62737262,3466753.695112609" priority="-1" numLanes="1" speed="110.0" allow="rail rail_electric" spreadType="center" />
<edge id="2f17f-1-re" from="be1ebca2-deec-4e15-af84-9ecda912f17f-km-45-gegen" to="be1ebca2-deec-4e15-af84-9ecda912f17f-km-25-in" shape="-2498496.62737262,3466753.695112609 -2498516.147492651,3466758.0499850498" priority="-1" numLanes="1" speed="110.0" allow="rail rail_electric" spreadType="center" />
<!-- Track be1ebca2-deec-4e15-af84-9ecda912f17f -->
<edge id="2f17f-2" from="be1ebca2-deec-4e15-af84-9ecda912f17f-km-45-gegen" to="be1ebca2-deec-4e15-af84-9ecda912f17f-km-234.45431792963808-in" shape="-2498496.62737262,3466753.695112609 -2498402.661352981,3466732.7316129655 -2498329.9658797192,3466713.124746185 -2498312.5482047037,3466709.062629299" priority="-1" numLanes="1" speed="110.0" allow="rail rail_electric" spreadType="center" />
<edge id="2f17f-2-re" from="be1ebca2-deec-4e15-af84-9ecda912f17f-km-234.45431792963808-in" to="be1ebca2-deec-4e15-af84-9ecda912f17f-km-45-gegen" shape="-2498312.5482047037,3466709.062629299 -2498329.9658797192,3466713.124746185 -2498402.661352981,3466732.7316129655 -2498496.62737262,3466753.695112609" priority="-1" numLanes="1" speed="110.0" allow="rail rail_electric" spreadType="center" />