<?xml version="1.0" encoding="UTF-8"?>
<routes xmlns:xsi="http://www.w3.org/2001/XMLSchema-instance" xsi:noNamespaceSchemaLocation="http://sumo.dlr.de/xsd/routes_file.xsd">
	<route edges="22787-0 22787-1 22787-2" color="55,255,45" id="route_76808670-4E69-418F-8F5F-10E82B422787-KM-25-IN-76808670-4E69-418F-8F5F-10E82B422787-KM-301.5762856547864-IN"/>
	<route edges="22787-2 22787-3 22787-4 2fc52-4-re" color="152,110,217" id="route_76808670-4E69-418F-8F5F-10E82B422787-KM-301.5762856547864-IN-503BE400-0DF6-41EA-AA9D-7F5EAFF2FC52-KM-136.72691529462978-GEGEN"/>
	<route edges="22787-2 22787-3 22787-4 cac3e-4-re" color="82,222,204" id="route_76808670-4E69-418F-8F5F-10E82B422787-KM-301.5762856547864-IN-1078D82D-DBE4-44C4-9533-5C18397CAC3E-KM-387.6570519499666-GEGEN"/>
	<route edges="22787-4-re 22787-3-re 22787-2-re" color="163,146,198" id="route_76808670-4E69-418F-8F5F-10E82B422787-KM-321.5762856547864-GEGEN-76808670-4E69-418F-8F5F-10E82B422787-KM-45-GEGEN"/>
	<route edges="22787-2-re 22787-1-re 22787-0-re 1daa3-0" color="96,238,11" id="route_76808670-4E69-418F-8F5F-10E82B422787-KM-45-GEGEN-F05C185B-D2DB-481B-87AD-FD205EA1DAA3-KM-25-IN"/>
	<route edges="22787-2-re 22787-1-re 22787-0-re f6d82-0" color="58,127,104" id="route_76808670-4E69-418F-8F5F-10E82B422787-KM-45-GEGEN-7DA6018C-544A-4F56-9D8B-EE6498FF6D82-KM-25-IN"/>
	<route edges="f6d82-0 f6d82-1 f6d82-2" color="108,1,130" id="route_7DA6018C-544A-4F56-9D8B-EE6498FF6D82-KM-25-IN-7DA6018C-544A-4F56-9D8B-EE6498FF6D82-KM-145.5616561823125-IN"/>
	<route edges="f6d82-2 f6d82-3 f6d82-4 89a43-0" color="237,26,39" id="route_7DA6018C-544A-4F56-9D8B-EE6498FF6D82-KM-145.5616561823125-IN-9AEF8F60-4788-4055-8409-E04F2D489A43-KM-25-IN"/>
	<route edges="f6d82-2 f6d82-3 f6d82-4 e49bb-0" color="245,175,213" id="route_7DA6018C-544A-4F56-9D8B-EE6498FF6D82-KM-145.5616561823125-IN-868E7230-0FAF-4112-8E97-3C891C8E49BB-KM-25-IN"/>
	<route edges="f6d82-4-re f6d82-3-re f6d82-2-re" color="173,109,163" id="route_7DA6018C-544A-4F56-9D8B-EE6498FF6D82-KM-165.5616561823125-GEGEN-7DA6018C-544A-4F56-9D8B-EE6498FF6D82-KM-45-GEGEN"/>
	<route edges="f6d82-2-re f6d82-1-re f6d82-0-re 22787-0" color="153,201,21" id="route_7DA6018C-544A-4F56-9D8B-EE6498FF6D82-KM-45-GEGEN-76808670-4E69-418F-8F5F-10E82B422787-KM-25-IN"/>
	<route edges="1daa3-0 1daa3-1 1daa3-2" color="128,0,230" id="route_F05C185B-D2DB-481B-87AD-FD205EA1DAA3-KM-25-IN-F05C185B-D2DB-481B-87AD-FD205EA1DAA3-KM-832.2588211144425-IN"/>
	<route edges="1daa3-2 1daa3-3 1daa3-4 c01ed-0" color="187,166,34" id="route_F05C185B-D2DB-481B-87AD-FD205EA1DAA3-KM-832.2588211144425-IN-DE3E73FE-5A98-48B6-A267-5406CF6C01ED-KM-25-IN"/>
	<route edges="1daa3-2 1daa3-3 1daa3-4 71ff2-0" color="180,254,145" id="route_F05C185B-D2DB-481B-87AD-FD205EA1DAA3-KM-832.2588211144425-IN-5B8B2D1E-8C48-4132-AFD5-AA505D271FF2-KM-25-IN"/>
	<route edges="1daa3-4-re 1daa3-3-re 1daa3-2-re" color="82,42,133" id="route_F05C185B-D2DB-481B-87AD-FD205EA1DAA3-KM-852.2588211144425-GEGEN-F05C185B-D2DB-481B-87AD-FD205EA1DAA3-KM-45-GEGEN"/>
	<route edges="1daa3-2-re 1daa3-1-re 1daa3-0-re 22787-0" color="104,110,100" id="route_F05C185B-D2DB-481B-87AD-FD205EA1DAA3-KM-45-GEGEN-76808670-4E69-418F-8F5F-10E82B422787-KM-25-IN"/>
	<route edges="89a43-0 89a43-1 89a43-2" color="51,7,54" id="route_9AEF8F60-4788-4055-8409-E04F2D489A43-KM-25-IN-9AEF8F60-4788-4055-8409-E04F2D489A43-KM-768.1457216628645-IN"/>
	<route edges="89a43-2 89a43-3 89a43-4 90162-0" color="0,241,50" id="route_9AEF8F60-4788-4055-8409-E04F2D489A43-KM-768.1457216628645-IN-35704B82-D5EE-403B-89C2-B6ACF2C90162-KM-25-IN"/>
	<route edges="89a43-4-re 89a43-3-re 89a43-2-re" color="67,25,119" id="route_9AEF8F60-4788-4055-8409-E04F2D489A43-KM-788.1457216628645-GEGEN-9AEF8F60-4788-4055-8409-E04F2D489A43-KM-45-GEGEN"/>
	<route edges="89a43-2-re 89a43-1-re 89a43-0-re f6d82-4-re" color="122,201,126" id="route_9AEF8F60-4788-4055-8409-E04F2D489A43-KM-45-GEGEN-7DA6018C-544A-4F56-9D8B-EE6498FF6D82-KM-165.5616561823125-GEGEN"/>
	<route edges="e49bb-0 e49bb-1 e49bb-2" color="47,146,89" id="route_868E7230-0FAF-4112-8E97-3C891C8E49BB-KM-25-IN-868E7230-0FAF-4112-8E97-3C891C8E49BB-KM-218.52550007798908-IN"/>
	<route edges="e49bb-2 e49bb-3 e49bb-4 98c8e-0 1d4db-4-re" color="206,119,226" id="route_868E7230-0FAF-4112-8E97-3C891C8E49BB-KM-218.52550007798908-IN-68B1D650-CFA3-4D11-BFDC-47396EC1D4DB-KM-1622.7448348066494-GEGEN"/>
	<route edges="e49bb-2 e49bb-3 e49bb-4 98c8e-0 120c2-4-re" color="9,40,138" id="route_868E7230-0FAF-4112-8E97-3C891C8E49BB-KM-218.52550007798908-IN-6DBF3794-8F1E-4333-BAE8-701BD52120C2-KM-1673.6383523495206-GEGEN"/>
	<route edges="e49bb-4-re e49bb-3-re e49bb-2-re" color="189,146,61" id="route_868E7230-0FAF-4112-8E97-3C891C8E49BB-KM-238.52550007798908-GEGEN-868E7230-0FAF-4112-8E97-3C891C8E49BB-KM-45-GEGEN"/>
	<route edges="e49bb-2-re e49bb-1-re e49bb-0-re f6d82-4-re" color="36,170,47" id="route_868E7230-0FAF-4112-8E97-3C891C8E49BB-KM-45-GEGEN-7DA6018C-544A-4F56-9D8B-EE6498FF6D82-KM-165.5616561823125-GEGEN"/>
	<route edges="90162-0 90162-1 90162-2" color="0,99,241" id="route_35704B82-D5EE-403B-89C2-B6ACF2C90162-KM-25-IN-35704B82-D5EE-403B-89C2-B6ACF2C90162-KM-149.7673894741766-IN"/>
	<route edges="90162-2 90162-3 90162-4 0a73d-0" color="190,216,30" id="route_35704B82-D5EE-403B-89C2-B6ACF2C90162-KM-149.7673894741766-IN-4A42F88B-2EC1-4EF2-BA87-47161D10A73D-KM-25-IN"/>
	<route edges="90162-4-re 90162-3-re 90162-2-re" color="66,244,215" id="route_35704B82-D5EE-403B-89C2-B6ACF2C90162-KM-169.7673894741766-GEGEN-35704B82-D5EE-403B-89C2-B6ACF2C90162-KM-45-GEGEN"/>
	<route edges="90162-2-re 90162-1-re 90162-0-re 8ecd9-0" color="237,98,5" id="route_35704B82-D5EE-403B-89C2-B6ACF2C90162-KM-45-GEGEN-F44B7B55-38EB-405F-9031-E7199208ECD9-KM-25-IN"/>
	<route edges="90162-2-re 90162-1-re 90162-0-re 89a43-4-re" color="228,204,233" id="route_35704B82-D5EE-403B-89C2-B6ACF2C90162-KM-45-GEGEN-9AEF8F60-4788-4055-8409-E04F2D489A43-KM-788.1457216628645-GEGEN"/>
	<route edges="8ecd9-2-re 8ecd9-1-re 8ecd9-0-re 90162-0" color="196,182,160" id="route_F44B7B55-38EB-405F-9031-E7199208ECD9-KM-45-GEGEN-35704B82-D5EE-403B-89C2-B6ACF2C90162-KM-25-IN"/>
	<route edges="0a73d-0 0a73d-1 0a73d-2" color="164,176,145" id="route_4A42F88B-2EC1-4EF2-BA87-47161D10A73D-KM-25-IN-4A42F88B-2EC1-4EF2-BA87-47161D10A73D-KM-664.7733628877847-IN"/>
	<route edges="0a73d-2 0a73d-3 0a73d-4 125aa-0-re 1ef26-0" color="62,45,3" id="route_4A42F88B-2EC1-4EF2-BA87-47161D10A73D-KM-664.7733628877847-IN-B9D077B8-54A5-415B-8F1C-CBDC1D71EF26-KM-25-IN"/>
	<route edges="0a73d-2 0a73d-3 0a73d-4 125aa-0-re 951e6-0" color="166,134,29" id="route_4A42F88B-2EC1-4EF2-BA87-47161D10A73D-KM-664.7733628877847-IN-15CAEF1F-46C3-4999-9ECE-5608738951E6-KM-25-IN"/>
	<route edges="0a73d-2 0a73d-3 0a73d-4 eafdc-0" color="6,110,28" id="route_4A42F88B-2EC1-4EF2-BA87-47161D10A73D-KM-664.7733628877847-IN-137A9AA4-F0F7-408E-BF28-09D5D87EAFDC-KM-25-IN"/>
	<route edges="0a73d-4-re 0a73d-3-re 0a73d-2-re" color="94,43,118" id="route_4A42F88B-2EC1-4EF2-BA87-47161D10A73D-KM-684.7733628877847-GEGEN-4A42F88B-2EC1-4EF2-BA87-47161D10A73D-KM-45-GEGEN"/>
	<route edges="0a73d-2-re 0a73d-1-re 0a73d-0-re 90162-4-re" color="206,146,168" id="route_4A42F88B-2EC1-4EF2-BA87-47161D10A73D-KM-45-GEGEN-35704B82-D5EE-403B-89C2-B6ACF2C90162-KM-169.7673894741766-GEGEN"/>
	<route edges="0a73d-2-re 0a73d-1-re 0a73d-0-re b12bb-0" color="134,75,221" id="route_4A42F88B-2EC1-4EF2-BA87-47161D10A73D-KM-45-GEGEN-ED1881A8-2783-4CDF-B362-B59F86DB12BB-KM-25-IN"/>
	<route edges="b12bb-2-re b12bb-1-re b12bb-0-re 0a73d-0" color="185,112,67" id="route_ED1881A8-2783-4CDF-B362-B59F86DB12BB-KM-45-GEGEN-4A42F88B-2EC1-4EF2-BA87-47161D10A73D-KM-25-IN"/>
	<route edges="2f17f-0 2f17f-1 2f17f-2" color="70,112,150" id="route_BE1EBCA2-DEEC-4E15-AF84-9ECDA912F17F-KM-25-IN-BE1EBCA2-DEEC-4E15-AF84-9ECDA912F17F-KM-234.45431792963808-IN"/>
	<route edges="2f17f-2 2f17f-3 2f17f-4 1224d-0" color="150,203,135" id="route_BE1EBCA2-DEEC-4E15-AF84-9ECDA912F17F-KM-234.45431792963808-IN-55D5F700-9BA1-4458-8E50-1615D701224D-KM-25-IN"/>
	<route edges="2f17f-4-re 2f17f-3-re 2f17f-2-re" color="247,136,139" id="route_BE1EBCA2-DEEC-4E15-AF84-9ECDA912F17F-KM-254.45431792963808-GEGEN-BE1EBCA2-DEEC-4E15-AF84-9ECDA912F17F-KM-45-GEGEN"/>
	<route edges="2f17f-2-re 2f17f-1-re 2f17f-0-re ef2bf-0 90614-4-re" color="177,170,226" id="route_BE1EBCA2-DEEC-4E15-AF84-9ECDA912F17F-KM-45-GEGEN-F0B45640-6164-4E67-BDDD-441971190614-KM-148.17881652121687-GEGEN"/>
	<route edges="2f17f-2-re 2f17f-1-re 2f17f-0-re ef2bf-0 1ef26-4-re" color="55,209,55" id="route_BE1EBCA2-DEEC-4E15-AF84-9ECDA912F17F-KM-45-GEGEN-B9D077B8-54A5-415B-8F1C-CBDC1D71EF26-KM-1671.7895552905081-GEGEN"/>
	<route edges="2005e-0 2005e-1 2005e-2" color="173,198,202" id="route_F5C7DB1B-7BCD-4FEA-AD1A-AB6F6482005E-KM-25-IN-F5C7DB1B-7BCD-4FEA-AD1A-AB6F6482005E-KM-990.0-IN"/>
	<route edges="2005e-2 2005e-3 2005e-4" color="8,214,83" id="route_F5C7DB1B-7BCD-4FEA-AD1A-AB6F6482005E-KM-990.0-IN-F5C7DB1B-7BCD-4FEA-AD1A-AB6F6482005E-KM-1990.0-IN"/>
	<route edges="2005e-4 2005e-5 2005e-6" color="87,217,114" id="route_F5C7DB1B-7BCD-4FEA-AD1A-AB6F6482005E-KM-1990.0-IN-F5C7DB1B-7BCD-4FEA-AD1A-AB6F6482005E-KM-2990.0-IN"/>
	<route edges="2005e-6 2005e-7 2005e-8" color="102,22,151" id="route_F5C7DB1B-7BCD-4FEA-AD1A-AB6F6482005E-KM-2990.0-IN-F5C7DB1B-7BCD-4FEA-AD1A-AB6F6482005E-KM-3990.0-IN"/>
	<route edges="2005e-8 2005e-9 2005e-10" color="199,201,121" id="route_F5C7DB1B-7BCD-4FEA-AD1A-AB6F6482005E-KM-3990.0-IN-F5C7DB1B-7BCD-4FEA-AD1A-AB6F6482005E-KM-5540.253303703657-IN"/>
	<route edges="2005e-10 2005e-11 2005e-12 4be0d-6-re" color="64,172,94" id="route_F5C7DB1B-7BCD-4FEA-AD1A-AB6F6482005E-KM-5540.253303703657-IN-076F2B86-D7D5-4CF3-9488-2F022604BE0D-KM-2085.2638939954745-GEGEN"/>
	<route edges="2005e-10 2005e-11 2005e-12 deb96-4-re" color="28,171,97" id="route_F5C7DB1B-7BCD-4FEA-AD1A-AB6F6482005E-KM-5540.253303703657-IN-53FFFFE5-1D44-4DBC-B339-2006F62DEB96-KM-1346.0689693348354-GEGEN"/>
	<route edges="2005e-12-re 2005e-11-re 2005e-10-re" color="45,97,140" id="route_F5C7DB1B-7BCD-4FEA-AD1A-AB6F6482005E-KM-5560.253303703657-GEGEN-F5C7DB1B-7BCD-4FEA-AD1A-AB6F6482005E-KM-4010.0-GEGEN"/>
	<route edges="2005e-10-re 2005e-9-re 2005e-8-re" color="226,206,251" id="route_F5C7DB1B-7BCD-4FEA-AD1A-AB6F6482005E-KM-4010.0-GEGEN-F5C7DB1B-7BCD-4FEA-AD1A-AB6F6482005E-KM-3010.0-GEGEN"/>
	<route edges="2005e-8-re 2005e-7-re 2005e-6-re" color="227,243,103" id="route_F5C7DB1B-7BCD-4FEA-AD1A-AB6F6482005E-KM-3010.0-GEGEN-F5C7DB1B-7BCD-4FEA-AD1A-AB6F6482005E-KM-2010.0-GEGEN"/>
	<route edges="2005e-6-re 2005e-5-re 2005e-4-re" color="216,253,228" id="route_F5C7DB1B-7BCD-4FEA-AD1A-AB6F6482005E-KM-2010.0-GEGEN-F5C7DB1B-7BCD-4FEA-AD1A-AB6F6482005E-KM-1010.0-GEGEN"/>
	<route edges="2005e-4-re 2005e-3-re 2005e-2-re" color="131,65,202" id="route_F5C7DB1B-7BCD-4FEA-AD1A-AB6F6482005E-KM-1010.0-GEGEN-F5C7DB1B-7BCD-4FEA-AD1A-AB6F6482005E-KM-45-GEGEN"/>
	<route edges="2005e-2-re 2005e-1-re 2005e-0-re ef2bf-0 90614-4-re" color="6,44,157" id="route_F5C7DB1B-7BCD-4FEA-AD1A-AB6F6482005E-KM-45-GEGEN-F0B45640-6164-4E67-BDDD-441971190614-KM-148.17881652121687-GEGEN"/>
	<route edges="2005e-2-re 2005e-1-re 2005e-0-re ef2bf-0 1ef26-4-re" color="10,87,192" id="route_F5C7DB1B-7BCD-4FEA-AD1A-AB6F6482005E-KM-45-GEGEN-B9D077B8-54A5-415B-8F1C-CBDC1D71EF26-KM-1671.7895552905081-GEGEN"/>
	<route edges="334d7-0 334d7-1 334d7-2" color="74,176,255" id="route_B90292E5-AA61-4AFC-8ED5-65EAD50334D7-KM-25-IN-B90292E5-AA61-4AFC-8ED5-65EAD50334D7-KM-443.81731618508263-IN"/>
	<route edges="334d7-2 334d7-3 334d7-4 4321f-0-re 22fc5-4-re" color="78,198,138" id="route_B90292E5-AA61-4AFC-8ED5-65EAD50334D7-KM-443.81731618508263-IN-3D8CCAF8-771D-4EA5-AAB3-45D918922FC5-KM-1189.3495270408275-GEGEN"/>
	<route edges="334d7-2 334d7-3 334d7-4 4321f-0-re 951e6-4-re" color="84,241,125" id="route_B90292E5-AA61-4AFC-8ED5-65EAD50334D7-KM-443.81731618508263-IN-15CAEF1F-46C3-4999-9ECE-5608738951E6-KM-1452.8979874733736-GEGEN"/>
	<route edges="334d7-4-re 334d7-3-re 334d7-2-re" color="41,170,210" id="route_B90292E5-AA61-4AFC-8ED5-65EAD50334D7-KM-463.81731618508263-GEGEN-B90292E5-AA61-4AFC-8ED5-65EAD50334D7-KM-45-GEGEN"/>
	<route edges="334d7-2-re 334d7-1-re 334d7-0-re 1224d-0" color="21,25,110" id="route_B90292E5-AA61-4AFC-8ED5-65EAD50334D7-KM-45-GEGEN-55D5F700-9BA1-4458-8E50-1615D701224D-KM-25-IN"/>
	<route edges="1224d-0 1224d-1 1224d-2" color="116,84,170" id="route_55D5F700-9BA1-4458-8E50-1615D701224D-KM-25-IN-55D5F700-9BA1-4458-8E50-1615D701224D-KM-1888.0650690078241-IN"/>
	<route edges="1224d-2 1224d-3 1224d-4 73566-0" color="107,20,110" id="route_55D5F700-9BA1-4458-8E50-1615D701224D-KM-1888.0650690078241-IN-71144525-E2BE-4876-8B7F-CE095D073566-KM-25-IN"/>
	<route edges="1224d-2 1224d-3 1224d-4 ee971-0 e116e-0 86450-0-re c21cc-0 4d334-0" color="233,138,168" id="route_55D5F700-9BA1-4458-8E50-1615D701224D-KM-1888.0650690078241-IN-6CDE813A-162A-4DBC-83AB-6FDD0E24D334-KM-25-IN"/>
	<route edges="1224d-2 1224d-3 1224d-4 ee971-0 e116e-0 86450-0-re c21cc-0 bf8fe-0" color="31,131,46" id="route_55D5F700-9BA1-4458-8E50-1615D701224D-KM-1888.0650690078241-IN-82886661-8B1B-4835-9450-863C7AEBF8FE-KM-25-IN"/>
	<route edges="1224d-2 1224d-3 1224d-4 ee971-0 e116e-0 5da70-0" color="156,122,179" id="route_55D5F700-9BA1-4458-8E50-1615D701224D-KM-1888.0650690078241-IN-D3ECA97E-644E-42AD-94D1-2DA73DC5DA70-KM-25-IN"/>
	<route edges="1224d-4-re 1224d-3-re 1224d-2-re" color="91,44,93" id="route_55D5F700-9BA1-4458-8E50-1615D701224D-KM-1908.0650690078241-GEGEN-55D5F700-9BA1-4458-8E50-1615D701224D-KM-45-GEGEN"/>
	<route edges="1224d-2-re 1224d-1-re 1224d-0-re 334d7-0" color="105,30,128" id="route_55D5F700-9BA1-4458-8E50-1615D701224D-KM-45-GEGEN-B90292E5-AA61-4AFC-8ED5-65EAD50334D7-KM-25-IN"/>
	<route edges="1224d-2-re 1224d-1-re 1224d-0-re 2f17f-4-re" color="154,170,47" id="route_55D5F700-9BA1-4458-8E50-1615D701224D-KM-45-GEGEN-BE1EBCA2-DEEC-4E15-AF84-9ECDA912F17F-KM-254.45431792963808-GEGEN"/>
	<route edges="434c9-0 434c9-1 434c9-2" color="174,192,4" id="route_8D356EEA-70BC-4E23-B4F2-C7032DA434C9-KM-25-IN-8D356EEA-70BC-4E23-B4F2-C7032DA434C9-KM-990.0-IN"/>
	<route edges="434c9-2 434c9-3 434c9-4" color="214,246,121" id="route_8D356EEA-70BC-4E23-B4F2-C7032DA434C9-KM-990.0-IN-8D356EEA-70BC-4E23-B4F2-C7032DA434C9-KM-2948.0134948223827-IN"/>
	<route edges="434c9-4 434c9-5 434c9-6 43438-0" color="65,145,204" id="route_8D356EEA-70BC-4E23-B4F2-C7032DA434C9-KM-2948.0134948223827-IN-F2C55324-20FD-4755-97A4-547926E43438-KM-25-IN"/>
	<route edges="434c9-6-re 434c9-5-re 434c9-4-re" color="172,129,192" id="route_8D356EEA-70BC-4E23-B4F2-C7032DA434C9-KM-2968.0134948223827-GEGEN-8D356EEA-70BC-4E23-B4F2-C7032DA434C9-KM-1010.0-GEGEN"/>
	<route edges="434c9-4-re 434c9-3-re 434c9-2-re" color="182,92,106" id="route_8D356EEA-70BC-4E23-B4F2-C7032DA434C9-KM-1010.0-GEGEN-8D356EEA-70BC-4E23-B4F2-C7032DA434C9-KM-45-GEGEN"/>
	<route edges="434c9-2-re 434c9-1-re 434c9-0-re 1ddd9-0 bf8fe-4-re" color="9,150,73" id="route_8D356EEA-70BC-4E23-B4F2-C7032DA434C9-KM-45-GEGEN-82886661-8B1B-4835-9450-863C7AEBF8FE-KM-340.8087986779541-GEGEN"/>
	<route edges="434c9-2-re 434c9-1-re 434c9-0-re 1ddd9-0 3f3ab-0 9b1a0-0-re d5851-0 4d334-4-re" color="41,56,133" id="route_8D356EEA-70BC-4E23-B4F2-C7032DA434C9-KM-45-GEGEN-6CDE813A-162A-4DBC-83AB-6FDD0E24D334-KM-181.66400492600528-GEGEN"/>
	<route edges="434c9-2-re 434c9-1-re 434c9-0-re 1ddd9-0 3f3ab-0 9b1a0-0-re d5851-0 35e8c-0 922ca-0" color="180,70,163" id="route_8D356EEA-70BC-4E23-B4F2-C7032DA434C9-KM-45-GEGEN-E727C4FF-2720-4677-B13A-B0F1769922CA-KM-25-IN"/>
	<route edges="434c9-2-re 434c9-1-re 434c9-0-re 1ddd9-0 3f3ab-0 9b1a0-0-re d5851-0 35e8c-0 00f91-0 a8cd0-4-re" color="223,241,52" id="route_8D356EEA-70BC-4E23-B4F2-C7032DA434C9-KM-45-GEGEN-A89A16AC-1D03-406C-8B8C-2F75EDDA8CD0-KM-555.7322343251935-GEGEN"/>
	<route edges="434c9-2-re 434c9-1-re 434c9-0-re 1ddd9-0 3f3ab-0 9b1a0-0-re d5851-0 35e8c-0 00f91-0 efa6a-0 8acc2-4-re" color="45,186,182" id="route_8D356EEA-70BC-4E23-B4F2-C7032DA434C9-KM-45-GEGEN-A793C1EE-796F-4331-8A88-C76AC548ACC2-KM-395.60889533993935-GEGEN"/>
	<route edges="798c0-0 798c0-1 798c0-2" color="122,241,191" id="route_EDACF845-7239-469B-B411-6309835798C0-KM-25-IN-EDACF845-7239-469B-B411-6309835798C0-KM-76.47358751756049-IN"/>
	<route edges="798c0-2 798c0-3 798c0-4 799c4-4-re" color="170,177,66" id="route_EDACF845-7239-469B-B411-6309835798C0-KM-76.47358751756049-IN-9CCA8B7E-50E9-4846-9D6E-E565193799C4-KM-95.25638756029988-GEGEN"/>
	<route edges="798c0-2 798c0-3 798c0-4 dfc08-0" color="24,208,46" id="route_EDACF845-7239-469B-B411-6309835798C0-KM-76.47358751756049-IN-B034542D-63B9-45CF-8C86-D5CFEBCDFC08-KM-25-IN"/>
	<route edges="798c0-4-re 798c0-3-re 798c0-2-re" color="162,235,133" id="route_EDACF845-7239-469B-B411-6309835798C0-KM-96.47358751756049-GEGEN-EDACF845-7239-469B-B411-6309835798C0-KM-45-GEGEN"/>
	<route edges="798c0-2-re 798c0-1-re 798c0-0-re f5388-0" color="55,83,176" id="route_EDACF845-7239-469B-B411-6309835798C0-KM-45-GEGEN-0D211F72-18BC-47B9-8C76-11E4A05F5388-KM-25-IN"/>
	<route edges="f5388-0 f5388-1 f5388-2" color="206,67,204" id="route_0D211F72-18BC-47B9-8C76-11E4A05F5388-KM-25-IN-0D211F72-18BC-47B9-8C76-11E4A05F5388-KM-176.352947606197-IN"/>
	<route edges="f5388-2 f5388-3 f5388-4 86f23-4-re" color="152,99,113" id="route_0D211F72-18BC-47B9-8C76-11E4A05F5388-KM-176.352947606197-IN-7194E37B-52EB-4AAE-B562-1D5423586F23-KM-167.7220062676434-GEGEN"/>
	<route edges="f5388-2 f5388-3 f5388-4 3fb01-4-re" color="53,169,13" id="route_0D211F72-18BC-47B9-8C76-11E4A05F5388-KM-176.352947606197-IN-A1D1BFF2-B601-48AD-B9ED-27A19213FB01-KM-758.9329257464503-GEGEN"/>
	<route edges="f5388-4-re f5388-3-re f5388-2-re" color="189,75,15" id="route_0D211F72-18BC-47B9-8C76-11E4A05F5388-KM-196.352947606197-GEGEN-0D211F72-18BC-47B9-8C76-11E4A05F5388-KM-45-GEGEN"/>
	<route edges="f5388-2-re f5388-1-re f5388-0-re 798c0-0" color="148,208,167" id="route_0D211F72-18BC-47B9-8C76-11E4A05F5388-KM-45-GEGEN-EDACF845-7239-469B-B411-6309835798C0-KM-25-IN"/>
	<route edges="f5388-2-re f5388-1-re f5388-0-re 88eb6-0 887f2-0 1a39d-0" color="182,79,117" id="route_0D211F72-18BC-47B9-8C76-11E4A05F5388-KM-45-GEGEN-4ED82B42-2547-4563-ADC9-0F6F74D1A39D-KM-25-IN"/>
	<route edges="f5388-2-re f5388-1-re f5388-0-re 88eb6-0 887f2-0 23d95-4-re" color="238,67,42" id="route_0D211F72-18BC-47B9-8C76-11E4A05F5388-KM-45-GEGEN-4F8FAE4F-4FA0-4BE9-9DC8-6C7E6D123D95-KM-1049.2555641663412-GEGEN"/>
	<route edges="f5388-2-re f5388-1-re f5388-0-re 88eb6-0 5f35c-0" color="76,5,245" id="route_0D211F72-18BC-47B9-8C76-11E4A05F5388-KM-45-GEGEN-CCF25943-3C27-4342-8C43-C5E998F5F35C-KM-25-IN"/>
	<route edges="5f35c-0 5f35c-1 5f35c-2" color="150,219,19" id="route_CCF25943-3C27-4342-8C43-C5E998F5F35C-KM-25-IN-CCF25943-3C27-4342-8C43-C5E998F5F35C-KM-1057.9134160895494-IN"/>
	<route edges="5f35c-2 5f35c-3 5f35c-4 c7a89-0 db523-0 fdce2-0" color="241,249,99" id="route_CCF25943-3C27-4342-8C43-C5E998F5F35C-KM-1057.9134160895494-IN-A1F323FF-887F-41D3-807C-70D7574FDCE2-KM-25-IN"/>
	<route edges="5f35c-4-re 5f35c-3-re 5f35c-2-re" color="86,181,188" id="route_CCF25943-3C27-4342-8C43-C5E998F5F35C-KM-1077.9134160895494-GEGEN-CCF25943-3C27-4342-8C43-C5E998F5F35C-KM-45-GEGEN"/>
	<route edges="5f35c-2-re 5f35c-1-re 5f35c-0-re 88eb6-0-re f5388-0" color="46,157,195" id="route_CCF25943-3C27-4342-8C43-C5E998F5F35C-KM-45-GEGEN-0D211F72-18BC-47B9-8C76-11E4A05F5388-KM-25-IN"/>
	<route edges="23d95-0 23d95-1 23d95-2" color="160,179,11" id="route_4F8FAE4F-4FA0-4BE9-9DC8-6C7E6D123D95-KM-25-IN-4F8FAE4F-4FA0-4BE9-9DC8-6C7E6D123D95-KM-1029.2555641663412-IN"/>
	<route edges="23d95-2 23d95-3 23d95-4 887f2-0-re 88eb6-0-re f5388-0" color="107,13,234" id="route_4F8FAE4F-4FA0-4BE9-9DC8-6C7E6D123D95-KM-1029.2555641663412-IN-0D211F72-18BC-47B9-8C76-11E4A05F5388-KM-25-IN"/>
	<route edges="23d95-4-re 23d95-3-re 23d95-2-re" color="193,96,26" id="route_4F8FAE4F-4FA0-4BE9-9DC8-6C7E6D123D95-KM-1049.2555641663412-GEGEN-4F8FAE4F-4FA0-4BE9-9DC8-6C7E6D123D95-KM-45-GEGEN"/>
	<route edges="23d95-2-re 23d95-1-re 23d95-0-re db523-0 fdce2-0" color="149,69,60" id="route_4F8FAE4F-4FA0-4BE9-9DC8-6C7E6D123D95-KM-45-GEGEN-A1F323FF-887F-41D3-807C-70D7574FDCE2-KM-25-IN"/>
	<route edges="fdce2-0 fdce2-1 fdce2-2" color="25,192,127" id="route_A1F323FF-887F-41D3-807C-70D7574FDCE2-KM-25-IN-A1F323FF-887F-41D3-807C-70D7574FDCE2-KM-435.0663329602517-IN"/>
	<route edges="fdce2-2 fdce2-3 fdce2-4 22a97-0" color="151,58,192" id="route_A1F323FF-887F-41D3-807C-70D7574FDCE2-KM-435.0663329602517-IN-0C71F3C6-CE89-4275-9A1A-58AA3DD22A97-KM-25-IN"/>
	<route edges="fdce2-2 fdce2-3 fdce2-4 773fc-0" color="17,254,104" id="route_A1F323FF-887F-41D3-807C-70D7574FDCE2-KM-435.0663329602517-IN-437B0534-7EB2-4832-9712-C11BD43773FC-KM-25-IN"/>
	<route edges="fdce2-4-re fdce2-3-re fdce2-2-re" color="65,88,170" id="route_A1F323FF-887F-41D3-807C-70D7574FDCE2-KM-455.0663329602517-GEGEN-A1F323FF-887F-41D3-807C-70D7574FDCE2-KM-45-GEGEN"/>
	<route edges="fdce2-2-re fdce2-1-re fdce2-0-re db523-0-re c7a89-0-re 78c1f-0 e82d3-4-re" color="52,175,15" id="route_A1F323FF-887F-41D3-807C-70D7574FDCE2-KM-45-GEGEN-1E08C476-9476-4D68-AD8C-761F29DE82D3-KM-948.2641741372947-GEGEN"/>
	<route edges="fdce2-2-re fdce2-1-re fdce2-0-re db523-0-re c7a89-0-re 5f35c-4-re" color="180,21,123" id="route_A1F323FF-887F-41D3-807C-70D7574FDCE2-KM-45-GEGEN-CCF25943-3C27-4342-8C43-C5E998F5F35C-KM-1077.9134160895494-GEGEN"/>
	<route edges="fdce2-2-re fdce2-1-re fdce2-0-re db523-0-re 23d95-0" color="230,2,89" id="route_A1F323FF-887F-41D3-807C-70D7574FDCE2-KM-45-GEGEN-4F8FAE4F-4FA0-4BE9-9DC8-6C7E6D123D95-KM-25-IN"/>
	<route edges="fdce2-2-re fdce2-1-re fdce2-0-re e826f-0 dde00-4-re" color="33,139,140" id="route_A1F323FF-887F-41D3-807C-70D7574FDCE2-KM-45-GEGEN-544BA920-0474-4778-9B6C-EE5334FDDE00-KM-914.5519844172353-GEGEN"/>
	<route edges="fdce2-2-re fdce2-1-re fdce2-0-re e826f-0 42aed-0 8ac79-4-re" color="97,219,68" id="route_A1F323FF-887F-41D3-807C-70D7574FDCE2-KM-45-GEGEN-08D9A377-D291-4A24-899D-6633C3F8AC79-KM-890.2218839305359-GEGEN"/>
	<route edges="fdce2-2-re fdce2-1-re fdce2-0-re e826f-0 42aed-0 c9d21-0-re 721f1-0 dfc08-4-re" color="236,212,68" id="route_A1F323FF-887F-41D3-807C-70D7574FDCE2-KM-45-GEGEN-B034542D-63B9-45CF-8C86-D5CFEBCDFC08-KM-914.6100386400316-GEGEN"/>
	<route edges="fdce2-2-re fdce2-1-re fdce2-0-re e826f-0 42aed-0 c9d21-0-re 721f1-0 54ead-4-re" color="35,254,207" id="route_A1F323FF-887F-41D3-807C-70D7574FDCE2-KM-45-GEGEN-53AF92BD-4B3A-4AE1-83B2-5ED3CE354EAD-KM-274.393868483975-GEGEN"/>
	<route edges="773fc-0 773fc-1 773fc-2" color="180,38,91" id="route_437B0534-7EB2-4832-9712-C11BD43773FC-KM-25-IN-437B0534-7EB2-4832-9712-C11BD43773FC-KM-59.28485462572691-IN"/>
	<route edges="773fc-2 773fc-3 773fc-4 66daf-0" color="28,64,55" id="route_437B0534-7EB2-4832-9712-C11BD43773FC-KM-59.28485462572691-IN-87E5A2D6-1B9E-4AE2-96EA-10A0D4366DAF-KM-25-IN"/>
	<route edges="773fc-4-re 773fc-3-re 773fc-2-re" color="182,81,18" id="route_437B0534-7EB2-4832-9712-C11BD43773FC-KM-79.28485462572691-GEGEN-437B0534-7EB2-4832-9712-C11BD43773FC-KM-45-GEGEN"/>
	<route edges="773fc-2-re 773fc-1-re 773fc-0-re fdce2-4-re" color="87,99,205" id="route_437B0534-7EB2-4832-9712-C11BD43773FC-KM-45-GEGEN-A1F323FF-887F-41D3-807C-70D7574FDCE2-KM-455.0663329602517-GEGEN"/>
	<route edges="22a97-0 22a97-1 22a97-2" color="218,7,132" id="route_0C71F3C6-CE89-4275-9A1A-58AA3DD22A97-KM-25-IN-0C71F3C6-CE89-4275-9A1A-58AA3DD22A97-KM-70.49227411094549-IN"/>
	<route edges="22a97-2 22a97-3 22a97-4 a633c-0" color="140,116,76" id="route_0C71F3C6-CE89-4275-9A1A-58AA3DD22A97-KM-70.49227411094549-IN-0227D699-1025-499A-B0CB-261EE55A633C-KM-25-IN"/>
	<route edges="22a97-4-re 22a97-3-re 22a97-2-re" color="85,117,76" id="route_0C71F3C6-CE89-4275-9A1A-58AA3DD22A97-KM-90.49227411094549-GEGEN-0C71F3C6-CE89-4275-9A1A-58AA3DD22A97-KM-45-GEGEN"/>
	<route edges="22a97-2-re 22a97-1-re 22a97-0-re fdce2-4-re" color="123,120,249" id="route_0C71F3C6-CE89-4275-9A1A-58AA3DD22A97-KM-45-GEGEN-A1F323FF-887F-41D3-807C-70D7574FDCE2-KM-455.0663329602517-GEGEN"/>
	<route edges="66daf-0 66daf-1 66daf-2" color="145,215,153" id="route_87E5A2D6-1B9E-4AE2-96EA-10A0D4366DAF-KM-25-IN-87E5A2D6-1B9E-4AE2-96EA-10A0D4366DAF-KM-964.5542787261779-IN"/>
	<route edges="66daf-2 66daf-3 66daf-4 3145b-0" color="122,22,51" id="route_87E5A2D6-1B9E-4AE2-96EA-10A0D4366DAF-KM-964.5542787261779-IN-67D76EBD-1F10-436A-AEE3-2F606883145B-KM-25-IN"/>
	<route edges="66daf-4-re 66daf-3-re 66daf-2-re" color="161,198,2" id="route_87E5A2D6-1B9E-4AE2-96EA-10A0D4366DAF-KM-984.5542787261779-GEGEN-87E5A2D6-1B9E-4AE2-96EA-10A0D4366DAF-KM-45-GEGEN"/>
	<route edges="66daf-2-re 66daf-1-re 66daf-0-re c09ac-0" color="30,56,10" id="route_87E5A2D6-1B9E-4AE2-96EA-10A0D4366DAF-KM-45-GEGEN-13D5371E-2F04-421F-A5B7-BAA144DC09AC-KM-25-IN"/>
	<route edges="66daf-2-re 66daf-1-re 66daf-0-re 773fc-4-re" color="22,115,103" id="route_87E5A2D6-1B9E-4AE2-96EA-10A0D4366DAF-KM-45-GEGEN-437B0534-7EB2-4832-9712-C11BD43773FC-KM-79.28485462572691-GEGEN"/>
	<route edges="c09ac-0 c09ac-1 c09ac-2" color="86,146,85" id="route_13D5371E-2F04-421F-A5B7-BAA144DC09AC-KM-25-IN-13D5371E-2F04-421F-A5B7-BAA144DC09AC-KM-81.34410270980774-IN"/>
	<route edges="c09ac-2 c09ac-3 c09ac-4 a3091-0" color="142,178,164" id="route_13D5371E-2F04-421F-A5B7-BAA144DC09AC-KM-81.34410270980774-IN-E455F167-FFDC-477F-8C3A-661C993A3091-KM-25-IN"/>
	<route edges="c09ac-4-re c09ac-3-re c09ac-2-re" color="111,82,100" id="route_13D5371E-2F04-421F-A5B7-BAA144DC09AC-KM-101.34410270980774-GEGEN-13D5371E-2F04-421F-A5B7-BAA144DC09AC-KM-45-GEGEN"/>
	<route edges="c09ac-2-re c09ac-1-re c09ac-0-re 66daf-0" color="76,103,98" id="route_13D5371E-2F04-421F-A5B7-BAA144DC09AC-KM-45-GEGEN-87E5A2D6-1B9E-4AE2-96EA-10A0D4366DAF-KM-25-IN"/>
	<route edges="85f32-0 85f32-1 85f32-2" color="2,141,115" id="route_C0CFB14E-2231-491E-A93C-952AD1A85F32-KM-5-IN-C0CFB14E-2231-491E-A93C-952AD1A85F32-KM-1226.872029481161-IN"/>
	<route edges="85f32-2 85f32-3 85f32-4 b15cf-0" color="148,10,94" id="route_C0CFB14E-2231-491E-A93C-952AD1A85F32-KM-1226.872029481161-IN-91A310B5-1C1E-4509-8462-5424195B15CF-KM-25-IN"/>
	<route edges="85f32-4-re 85f32-3-re 85f32-2-re" color="145,203,164" id="route_C0CFB14E-2231-491E-A93C-952AD1A85F32-KM-1246.872029481161-GEGEN-C0CFB14E-2231-491E-A93C-952AD1A85F32-KM-11.0-GEGEN"/>
	<route edges="f197e-0 f197e-1 f197e-2" color="255,80,255" id="route_6C014B3B-71A1-4CD3-9946-B8E9908F197E-KM-25-IN-6C014B3B-71A1-4CD3-9946-B8E9908F197E-KM-1595.0764173282626-IN"/>
	<route edges="f197e-2 f197e-3 f197e-4 60d73-0 2fc52-0" color="1,31,81" id="route_6C014B3B-71A1-4CD3-9946-B8E9908F197E-KM-1595.0764173282626-IN-503BE400-0DF6-41EA-AA9D-7F5EAFF2FC52-KM-25-IN"/>
	<route edges="f197e-2 f197e-3 f197e-4 60d73-0 59a05-0" color="126,170,56" id="route_6C014B3B-71A1-4CD3-9946-B8E9908F197E-KM-1595.0764173282626-IN-1FBFFE9C-46CB-4993-A16B-77904D159A05-KM-25-IN"/>
	<route edges="f197e-4-re f197e-3-re f197e-2-re" color="144,211,37" id="route_6C014B3B-71A1-4CD3-9946-B8E9908F197E-KM-1615.0764173282626-GEGEN-6C014B3B-71A1-4CD3-9946-B8E9908F197E-KM-45-GEGEN"/>
	<route edges="f197e-2-re f197e-1-re f197e-0-re 6602d-0 1d7ee-4-re" color="113,93,113" id="route_6C014B3B-71A1-4CD3-9946-B8E9908F197E-KM-45-GEGEN-CADF61D8-6B15-4301-8395-B6B72421D7EE-KM-211.28309988659058-GEGEN"/>
	<route edges="f197e-2-re f197e-1-re f197e-0-re 6602d-0 1c548-0-re 3f2b6-4-re" color="169,217,74" id="route_6C014B3B-71A1-4CD3-9946-B8E9908F197E-KM-45-GEGEN-C4CA9DB9-58B6-485C-9CB3-835552F3F2B6-KM-127.93993372271524-GEGEN"/>
	<route edges="416a2-0 416a2-1 416a2-2" color="193,25,130" id="route_EF52733B-A463-4B72-8E4D-B41A998416A2-KM-25-IN-EF52733B-A463-4B72-8E4D-B41A998416A2-KM-990.0-IN"/>
	<route edges="416a2-2 416a2-3 416a2-4" color="244,123,124" id="route_EF52733B-A463-4B72-8E4D-B41A998416A2-KM-990.0-IN-EF52733B-A463-4B72-8E4D-B41A998416A2-KM-1990.0-IN"/>
	<route edges="416a2-4 416a2-5 416a2-6" color="131,42,160" id="route_EF52733B-A463-4B72-8E4D-B41A998416A2-KM-1990.0-IN-EF52733B-A463-4B72-8E4D-B41A998416A2-KM-3150.0135601901507-IN"/>
	<route edges="416a2-6 416a2-7 416a2-8 6b1a2-0" color="220,244,248" id="route_EF52733B-A463-4B72-8E4D-B41A998416A2-KM-3150.0135601901507-IN-39616126-8082-4C87-B5AA-4FFF4986B1A2-KM-25-IN"/>
	<route edges="416a2-6 416a2-7 416a2-8 f9956-0" color="190,55,98" id="route_EF52733B-A463-4B72-8E4D-B41A998416A2-KM-3150.0135601901507-IN-F26CFC34-6775-4128-87BF-5317163F9956-KM-25-IN"/>
	<route edges="416a2-8-re 416a2-7-re 416a2-6-re" color="164,203,68" id="route_EF52733B-A463-4B72-8E4D-B41A998416A2-KM-3170.0135601901507-GEGEN-EF52733B-A463-4B72-8E4D-B41A998416A2-KM-2010.0-GEGEN"/>
	<route edges="416a2-6-re 416a2-5-re 416a2-4-re" color="127,185,58" id="route_EF52733B-A463-4B72-8E4D-B41A998416A2-KM-2010.0-GEGEN-EF52733B-A463-4B72-8E4D-B41A998416A2-KM-1010.0-GEGEN"/>
	<route edges="416a2-4-re 416a2-3-re 416a2-2-re" color="120,184,86" id="route_EF52733B-A463-4B72-8E4D-B41A998416A2-KM-1010.0-GEGEN-EF52733B-A463-4B72-8E4D-B41A998416A2-KM-45-GEGEN"/>
	<route edges="416a2-2-re 416a2-1-re 416a2-0-re 6602d-0 1d7ee-4-re" color="197,45,243" id="route_EF52733B-A463-4B72-8E4D-B41A998416A2-KM-45-GEGEN-CADF61D8-6B15-4301-8395-B6B72421D7EE-KM-211.28309988659058-GEGEN"/>
	<route edges="416a2-2-re 416a2-1-re 416a2-0-re 6602d-0 1c548-0-re 3f2b6-4-re" color="143,18,216" id="route_EF52733B-A463-4B72-8E4D-B41A998416A2-KM-45-GEGEN-C4CA9DB9-58B6-485C-9CB3-835552F3F2B6-KM-127.93993372271524-GEGEN"/>
	<route edges="3b428-0 3b428-1 3b428-2" color="246,202,42" id="route_3A847352-F610-4137-93D9-99E95873B428-KM-25-IN-3A847352-F610-4137-93D9-99E95873B428-KM-132.73211692197054-IN"/>
	<route edges="3b428-2 3b428-3 3b428-4 6ebf2-0" color="138,132,21" id="route_3A847352-F610-4137-93D9-99E95873B428-KM-132.73211692197054-IN-5B91E1CE-D8BB-4DFE-8405-4F6A0FB6EBF2-KM-25-IN"/>
	<route edges="3b428-4-re 3b428-3-re 3b428-2-re" color="81,184,56" id="route_3A847352-F610-4137-93D9-99E95873B428-KM-152.73211692197054-GEGEN-3A847352-F610-4137-93D9-99E95873B428-KM-45-GEGEN"/>