<configuration>
	<input>
		<net-file value="schwarze_pumpe_v2.net.xml" />
		<route-files value="schwarze_pumpe_v2.routes.xml" />
	</input>
</configuration>
