<connections>

<!-- Point d43f9 b035347a-8951-47a2-b639-7be9040d43f9 -->
<connection from="94742-0" to="de139-2"/>
<connection from="94742-0" to="de139-2-re"/>
<connection from="94742-0-re" to="de139-2"/>
<connection from="94742-0-re" to="de139-2-re"/>
<connection from="94cb9-0" to="de139-2"/>
<connection from="94cb9-0" to="de139-2-re"/>
<connection from="94cb9-0-re" to="de139-2"/>
<connection from="94cb9-0-re" to="de139-2-re"/>
<connection from="de139-2" to="94742-0"/>
<connection from="de139-2" to="94cb9-0"/>
<connection from="de139-2" to="94742-0-re"/>
<connection from="de139-2" to="94cb9-0-re"/>
<connection from="de139-2-re" to="94742-0"/>
<connection from="de139-2-re" to="94cb9-0"/>
<connection from="de139-2-re" to="94742-0-re"/>
<connection from="de139-2-re" to="94cb9-0-re"/>
<!-- Point fa9ea 49edaec3-18e8-4667-a499-03d7409fa9ea -->
<connection from="b6d5c-0" to="94cb9-1"/>
<connection from="b6d5c-0" to="94cb9-1-re"/>
<connection from="b6d5c-0-re" to="94cb9-1"/>
<connection from="b6d5c-0-re" to="94cb9-1-re"/>
<connection from="cd7fb-0" to="94cb9-1"/>
<connection from="cd7fb-0" to="94cb9-1-re"/>
<connection from="cd7fb-0-re" to="94cb9-1"/>
<connection from="cd7fb-0-re" to="94cb9-1-re"/>
<connection from="94cb9-1" to="b6d5c-0"/>
<connection from="94cb9-1" to="cd7fb-0"/>
<connection from="94cb9-1" to="b6d5c-0-re"/>
<connection from="94cb9-1" to="cd7fb-0-re"/>
<connection from="94cb9-1-re" to="b6d5c-0"/>
<connection from="94cb9-1-re" to="cd7fb-0"/>
<connection from="94cb9-1-re" to="b6d5c-0-re"/>
<connection from="94cb9-1-re" to="cd7fb-0-re"/>
<!-- Point fd73d d2b70df6-f58e-43f8-8e1c-fde77fdfd73d -->
<connection from="a89b2-0" to="b6d5c-1"/>
<connection from="a89b2-0" to="b6d5c-1-re"/>
<connection from="a89b2-0-re" to="b6d5c-1"/>
<connection from="a89b2-0-re" to="b6d5c-1-re"/>
<connection from="3a70a-0" to="b6d5c-1"/>
<connection from="3a70a-0" to="b6d5c-1-re"/>
<connection from="3a70a-0-re" to="b6d5c-1"/>
<connection from="3a70a-0-re" to="b6d5c-1-re"/>
<connection from="b6d5c-1" to="a89b2-0"/>
<connection from="b6d5c-1" to="3a70a-0"/>
<connection from="b6d5c-1" to="a89b2-0-re"/>
<connection from="b6d5c-1" to="3a70a-0-re"/>
<connection from="b6d5c-1-re" to="a89b2-0"/>
<connection from="b6d5c-1-re" to="3a70a-0"/>
<connection from="b6d5c-1-re" to="a89b2-0-re"/>
<connection from="b6d5c-1-re" to="3a70a-0-re"/>

<!-- Point cfe02 e52d6c31-5d36-463e-97f4-c5339a6cfe02 -->
<connection from="38f16-0" to="cd7fb-1"/>
<connection from="38f16-0" to="cd7fb-1-re"/>
<connection from="38f16-0-re" to="cd7fb-1"/>
<connection from="38f16-0-re" to="cd7fb-1-re"/>
<connection from="64f22-0" to="cd7fb-1"/>
<connection from="64f22-0" to="cd7fb-1-re"/>
<connection from="64f22-0-re" to="cd7fb-1"/>
<connection from="64f22-0-re" to="cd7fb-1-re"/>
<connection from="cd7fb-1" to="38f16-0"/>
<connection from="cd7fb-1" to="64f22-0"/>
<connection from="cd7fb-1" to="38f16-0-re"/>
<connection from="cd7fb-1" to="64f22-0-re"/>
<connection from="cd7fb-1-re" to="38f16-0"/>
<connection from="cd7fb-1-re" to="64f22-0"/>
<connection from="cd7fb-1-re" to="38f16-0-re"/>
<connection from="cd7fb-1-re" to="64f22-0-re"/>

<!-- Point 21b88 6390484e-aaae-4453-b911-05b83f221b88 -->
<connection from="38f16-1" to="bb5a5-0"/>
<connection from="38f16-1" to="bb5a5-0-re"/>
<connection from="38f16-1-re" to="bb5a5-0"/>
<connection from="38f16-1-re" to="bb5a5-0-re"/>
<connection from="3a70a-1" to="bb5a5-0"/>
<connection from="3a70a-1" to="bb5a5-0-re"/>
<connection from="3a70a-1-re" to="bb5a5-0"/>
<connection from="3a70a-1-re" to="bb5a5-0-re"/>
<connection from="bb5a5-0" to="38f16-1"/>
<connection from="bb5a5-0" to="3a70a-1"/>
<connection from="bb5a5-0" to="38f16-1-re"/>
<connection from="bb5a5-0" to="3a70a-1-re"/>
<connection from="bb5a5-0-re" to="38f16-1"/>
<connection from="bb5a5-0-re" to="3a70a-1"/>
<connection from="bb5a5-0-re" to="38f16-1-re"/>
<connection from="bb5a5-0-re" to="3a70a-1-re"/>
<!-- Point e641b 2e59afeb-8a51-47a6-a38e-129c185e641b -->
<connection from="bb5a5-1" to="a8f44-0"/>
<connection from="bb5a5-1" to="a8f44-0-re"/>
<connection from="bb5a5-1-re" to="a8f44-0"/>
<connection from="bb5a5-1-re" to="a8f44-0-re"/>
<connection from="b8e69-3" to="a8f44-0"/>
<connection from="b8e69-3" to="a8f44-0-re"/>
<connection from="b8e69-3-re" to="a8f44-0"/>
<connection from="b8e69-3-re" to="a8f44-0-re"/>
<connection from="a8f44-0" to="bb5a5-1"/>
<connection from="a8f44-0" to="b8e69-3"/>
<connection from="a8f44-0" to="bb5a5-1-re"/>
<connection from="a8f44-0" to="b8e69-3-re"/>
<connection from="a8f44-0-re" to="bb5a5-1"/>
<connection from="a8f44-0-re" to="b8e69-3"/>
<connection from="a8f44-0-re" to="bb5a5-1-re"/>
<connection from="a8f44-0-re" to="b8e69-3-re"/>

<!-- Point fb749 a4b176c5-69c1-455f-83bc-037b330fb749 -->
<connection from="34bff-0" to="94742-0"/>
<connection from="34bff-0" to="94742-0-re"/>
<connection from="34bff-0-re" to="94742-0"/>
<connection from="34bff-0-re" to="94742-0-re"/>
<connection from="b8e69-0" to="94742-0"/>
<connection from="b8e69-0" to="94742-0-re"/>
<connection from="b8e69-0-re" to="94742-0"/>
<connection from="b8e69-0-re" to="94742-0-re"/>
<connection from="94742-0" to="34bff-0"/>
<connection from="94742-0" to="b8e69-0"/>
<connection from="94742-0" to="34bff-0-re"/>
<connection from="94742-0" to="b8e69-0-re"/>
<connection from="94742-0-re" to="34bff-0"/>
<connection from="94742-0-re" to="b8e69-0"/>
<connection from="94742-0-re" to="34bff-0-re"/>
<connection from="94742-0-re" to="b8e69-0-re"/>

<!-- Signal 60BS1 0ab8c048-f4ea-4d4d-97cd-510d0b05651f -->
<connection from="de139-0" to="de139-1"/>
<connection from="de139-0" to="de139-1-re"/>
<connection from="de139-0-re" to="de139-1"/>
<connection from="de139-0-re" to="de139-1-re"/>
<connection from="de139-1" to="de139-0"/>
<connection from="de139-1" to="de139-0-re"/>
<connection from="de139-1-re" to="de139-0"/>
<connection from="de139-1-re" to="de139-0-re"/>
<!-- Signal 60BS7 0f4293c2-667e-4020-83a0-8d33b9d4eb49 -->
<connection from="de139-1" to="de139-2"/>
<connection from="de139-1" to="de139-2-re"/>
<connection from="de139-1-re" to="de139-2"/>
<connection from="de139-1-re" to="de139-2-re"/>
<connection from="de139-2" to="de139-1"/>
<connection from="de139-2" to="de139-1-re"/>
<connection from="de139-2-re" to="de139-1"/>
<connection from="de139-2-re" to="de139-1-re"/>
<!-- Signal 60ES1 c4bcb263-2ca6-4b29-b7d5-54df66b0d782 -->
<connection from="94cb9-0" to="94cb9-1"/>
<connection from="94cb9-0" to="94cb9-1-re"/>
<connection from="94cb9-0-re" to="94cb9-1"/>
<connection from="94cb9-0-re" to="94cb9-1-re"/>
<connection from="94cb9-1" to="94cb9-0"/>
<connection from="94cb9-1" to="94cb9-0-re"/>
<connection from="94cb9-1-re" to="94cb9-0"/>
<connection from="94cb9-1-re" to="94cb9-0-re"/>
<!-- Signal 60AS3 b50586b9-34ae-4ea1-94e5-dc439956ed6e -->
<connection from="b6d5c-0" to="b6d5c-1"/>
<connection from="b6d5c-0" to="b6d5c-1-re"/>
<connection from="b6d5c-0-re" to="b6d5c-1"/>
<connection from="b6d5c-0-re" to="b6d5c-1-re"/>
<connection from="b6d5c-1" to="b6d5c-0"/>
<connection from="b6d5c-1" to="b6d5c-0-re"/>
<connection from="b6d5c-1-re" to="b6d5c-0"/>
<connection from="b6d5c-1-re" to="b6d5c-0-re"/>
<!-- Signal 60AS4 4950a755-0626-4923-82d9-4c2719083828 -->
<connection from="cd7fb-0" to="cd7fb-1"/>
<connection from="cd7fb-0" to="cd7fb-1-re"/>
<connection from="cd7fb-0-re" to="cd7fb-1"/>
<connection from="cd7fb-0-re" to="cd7fb-1-re"/>
<connection from="cd7fb-1" to="cd7fb-0"/>
<connection from="cd7fb-1" to="cd7fb-0-re"/>
<connection from="cd7fb-1-re" to="cd7fb-0"/>
<connection from="cd7fb-1-re" to="cd7fb-0-re"/>
<!-- Signal 60AS1 de0a30a3-a172-4a5a-8fd0-fb911d58304f -->
<connection from="3a70a-0" to="3a70a-1"/>
<connection from="3a70a-0" to="3a70a-1-re"/>
<connection from="3a70a-0-re" to="3a70a-1"/>
<connection from="3a70a-0-re" to="3a70a-1-re"/>
<connection from="3a70a-1" to="3a70a-0"/>
<connection from="3a70a-1" to="3a70a-0-re"/>
<connection from="3a70a-1-re" to="3a70a-0"/>
<connection from="3a70a-1-re" to="3a70a-0-re"/>
<!-- Signal 60AS2 b1021fd5-65d8-44fc-a692-9872e0114074 -->
<connection from="38f16-0" to="38f16-1"/>
<connection from="38f16-0" to="38f16-1-re"/>
<connection from="38f16-0-re" to="38f16-1"/>
<connection from="38f16-0-re" to="38f16-1-re"/>
<connection from="38f16-1" to="38f16-0"/>
<connection from="38f16-1" to="38f16-0-re"/>
<connection from="38f16-1-re" to="38f16-0"/>
<connection from="38f16-1-re" to="38f16-0-re"/>
<!-- Signal 60ES2 b06db848-79e3-459f-949b-fdcd0aadc980 -->
<connection from="bb5a5-0" to="bb5a5-1"/>
<connection from="bb5a5-0" to="bb5a5-1-re"/>
<connection from="bb5a5-0-re" to="bb5a5-1"/>
<connection from="bb5a5-0-re" to="bb5a5-1-re"/>
<connection from="bb5a5-1" to="bb5a5-0"/>
<connection from="bb5a5-1" to="bb5a5-0-re"/>
<connection from="bb5a5-1-re" to="bb5a5-0"/>
<connection from="bb5a5-1-re" to="bb5a5-0-re"/>
<!-- Signal 60BS3 a87c6cdb-22be-4f1f-a08c-6fee4c0b55da -->
<connection from="a8f44-0" to="a8f44-1"/>
<connection from="a8f44-0" to="a8f44-1-re"/>
<connection from="a8f44-0-re" to="a8f44-1"/>
<connection from="a8f44-0-re" to="a8f44-1-re"/>
<connection from="a8f44-1" to="a8f44-0"/>
<connection from="a8f44-1" to="a8f44-0-re"/>
<connection from="a8f44-1-re" to="a8f44-0"/>
<connection from="a8f44-1-re" to="a8f44-0-re"/>
<!-- Signal 60BS4 cfa84452-ba37-4a14-aff1-046e4ff7d378 -->
<connection from="a8f44-1" to="a8f44-2"/>
<connection from="a8f44-1" to="a8f44-2-re"/>
<connection from="a8f44-1-re" to="a8f44-2"/>
<connection from="a8f44-1-re" to="a8f44-2-re"/>
<connection from="a8f44-2" to="a8f44-1"/>
<connection from="a8f44-2" to="a8f44-1-re"/>
<connection from="a8f44-2-re" to="a8f44-1"/>
<connection from="a8f44-2-re" to="a8f44-1-re"/>
<!-- Signal 60BS2 269477ba-71a6-4e2d-9d07-ed3a04ea813c -->
<connection from="b8e69-0" to="b8e69-1"/>
<connection from="b8e69-0" to="b8e69-1-re"/>
<connection from="b8e69-0-re" to="b8e69-1"/>
<connection from="b8e69-0-re" to="b8e69-1-re"/>
<connection from="b8e69-1" to="b8e69-0"/>
<connection from="b8e69-1" to="b8e69-0-re"/>
<connection from="b8e69-1-re" to="b8e69-0"/>
<connection from="b8e69-1-re" to="b8e69-0-re"/>
<!-- Signal 60BS6 da733c12-26b5-47ba-bc63-5bed7ec66bd2 -->
<connection from="b8e69-1" to="b8e69-2"/>
<connection from="b8e69-1" to="b8e69-2-re"/>
<connection from="b8e69-1-re" to="b8e69-2"/>
<connection from="b8e69-1-re" to="b8e69-2-re"/>
<connection from="b8e69-2" to="b8e69-1"/>
<connection from="b8e69-2" to="b8e69-1-re"/>
<connection from="b8e69-2-re" to="b8e69-1"/>
<connection from="b8e69-2-re" to="b8e69-1-re"/>
<!-- Signal 60BS5 77bd5713-9eab-453f-a95f-cc820f7e79d9 -->
<connection from="b8e69-2" to="b8e69-3"/>
<connection from="b8e69-2" to="b8e69-3-re"/>
<connection from="b8e69-2-re" to="b8e69-3"/>
<connection from="b8e69-2-re" to="b8e69-3-re"/>
<connection from="b8e69-3" to="b8e69-2"/>
<connection from="b8e69-3" to="b8e69-2-re"/>
<connection from="b8e69-3-re" to="b8e69-2"/>
<connection from="b8e69-3-re" to="b8e69-2-re"/>
</connections>
