<nodes>
<node id="175c5" x="-2512719.9413900003" y="3471469.6516299993" type="priority"/>
<node id="111fb" x="-2510240.96626" y="3474720.4712499995" type="priority"/>
<node id="ebc35" x="-2511391.3338" y="3474562.950959999" type="priority"/>
<node id="aba4c" x="-2510245.66299" y="3474727.392790001" type="priority"/>
<node id="f2928" x="-2511393.39168" y="3474581.5210599992" type="priority"/>
<node id="9e8c8" x="-2510252.2347" y="3474745.3996099997" type="priority"/>
<node id="3f04a" x="-2511302.4917099997" y="3474608.878040001" type="priority"/>
<node id="4e0c9" x="-2511596.43518" y="3474523.0526800007" type="priority"/>
<node id="38949" x="-2511637.35375" y="3474514.37283" type="priority"/>
<node id="395c7" x="-2511945.9010699997" y="3474449.094970001" type="priority"/>
<node id="554a2" x="-2512976.32198" y="3474229.8106699996" type="priority"/>
<node id="dcf57" x="-2510248.44709" y="3474740.1507399995" type="priority"/>
<node id="23182" x="-2511636.26082" y="3474506.70177" type="priority"/>
<node id="c2a1c" x="-2511818.85538" y="3474441.8058700003" type="priority"/>
<node id="96aeb" x="-2512934.11673" y="3474205.2315800004" type="priority"/>
<node id="5dd9f" x="-2513266.38028" y="3474143.181120001" type="priority"/>
<node id="aa78d" x="-2512818.2885100003" y="3474929.6044200007" type="priority"/>
<node id="5e60b" x="-2512760.18215" y="3474711.772430001" type="priority"/>
<node id="c3dc2" x="-2510029.5778799998" y="3470763.58399" type="priority"/>
<node id="d1d00" x="-2510011.46233" y="3470764.3675500005" type="priority"/>
<node id="eb3ea" x="-2507071.66039" y="3470921.66581" type="priority"/>
<node id="77c11" x="-2506745.70262" y="3470938.94919" type="priority"/>
<node id="00c8d" x="-2502019.07712" y="3470252.1376300007" type="priority"/>
<node id="e6f74" x="-2502227.88114" y="3469966.933289999" type="priority"/>
<node id="bdbbe" x="-2512981.11786" y="3474221.0421600007" type="priority"/>
<node id="517ae" x="-2511911.9069999997" y="3474443.3137599993" type="priority"/>
<node id="bf5ee" x="-2506878.59963" y="3470925.1383599993" type="priority"/>
<node id="b6187" x="-2513468.88889" y="3474089.0927799996" type="priority"/>
<node id="47b5c" x="-2513345.6737599997" y="3474118.5127499998" type="priority"/>
<node id="16427" x="-2513227.79331" y="3474176.3840200007" type="priority"/>
<node id="69cf1" x="-2513452.72937" y="3474120.282710001" type="priority"/>
<node id="e2a18" x="-2513956.53491" y="3474011.4967100006" type="priority"/>
<node id="79c7e" x="-2513331.81173" y="3474122.527279999" type="priority"/>
<node id="51837" x="-2513216.1556700002" y="3474167.0373599995" type="priority"/>
<node id="5556c" x="-2506897.57649" y="3470923.948589999" type="priority"/>
<node id="5c8a7" x="-2513137.4688999997" y="3474195.1385699995" type="priority"/>
<node id="f139e" x="-2513231.32878" y="3474182.0989299994" type="priority"/>
<node id="9ea19" x="-2513903.84938" y="3474037.2808100004" type="priority"/>
<node id="76c61" x="-2510184.0465599997" y="3470747.9648100007" type="priority"/>
<node id="787a2" x="-2513689.91549" y="3474093.829569999" type="priority"/>
<node id="2fa28" x="-2502065.25229" y="3470168.9424600005" type="priority"/>
<node id="ae7e1" x="-2509861.90106" y="3470765.04638" type="priority"/>
<node id="22f76" x="-2502494.82528" y="3469641.153000001" type="priority"/>
<node id="87a9a" x="-2501632.6633200003" y="3470775.7305200007" type="priority"/>
<node id="8f19d" x="-2501550.5233" y="3470768.987880001" type="priority"/>
<node id="23aac" x="-2500688.49554" y="3470018.4375" type="priority"/>
<node id="fe127" x="-2500024.2620200003" y="3469539.477430001" type="priority"/>
<node id="c74a9" x="-2507182.44648" y="3474890.55191" type="priority"/>
<node id="4d5ef" x="-2508023.5285900002" y="3474231.801000001" type="priority"/>
<node id="0df18" x="-2511590.53712" y="3474516.6578400005" type="priority"/>
<node id="2523d" x="-2513963.02839" y="3473997.8567900006" type="priority"/>
<node id="f572f" x="-2512743.73531" y="3474729.9859800003" type="priority"/>
<node id="81ca9" x="-2512784.49962" y="3474959.07481" type="priority"/>
<node id="9e734" x="-2511763.24989" y="3474479.646709999" type="priority"/>
<node id="dcdc5" x="-2511455.33109" y="3474550.8395099994" type="priority"/>
<node id="4966c" x="-2513901.68366" y="3474032.603150001" type="priority"/>
<node id="1def9" x="-2513156.9975300003" y="3474177.2458800003" type="priority"/>
<node id="a2263" x="-2510007.87933" y="3474822.445080001" type="priority"/>
<node id="aebe0" x="-2512992.65068" y="3473172.8707599994" type="priority"/>
<node id="d3c93" x="-2511769.09444" y="3470864.651799999" type="priority"/>
<node id="1162f" x="-2512018.0626" y="3470869.2239800002" type="priority"/>
<node id="5861e" x="-2512125.38092" y="3470869.6150700003" type="priority"/>
<node id="eeb31" x="-2513327.26281" y="3470781.38514" type="priority"/>
<node id="a8a6c" x="-2513407.6275" y="3470775.34997" type="priority"/>
<node id="ec7c9" x="-2513501.11808" y="3470768.3187499996" type="priority"/>
<node id="3d113" x="-2513573.8338099997" y="3470762.8526300006" type="priority"/>
<node id="08a2d" x="-2514252.72291" y="3470712.6443799995" type="priority"/>
<node id="47218" x="-2514249.05846" y="3470705.02709" type="priority"/>
<node id="dcee6" x="-2513689.97285" y="3470746.33557" type="priority"/>
<node id="81889" x="-2513393.1581300003" y="3470768.4159699995" type="priority"/>
<node id="32e08" x="-2513322.1033199998" y="3470773.7007800005" type="priority"/>
<node id="f439f" x="-2512860.17575" y="3471595.4591799993" type="priority"/>
<node id="79b9e" x="-2512872.49928" y="3471618.333900001" type="priority"/>
<node id="f9c45" x="-2512992.57685" y="3471847.28046" type="priority"/>
<node id="f2df3" x="-2512098.4178" y="3470863.3948299997" type="priority"/>
<node id="233ae" x="-2513167.70895" y="3470785.0847200006" type="priority"/>
<node id="fc6be" x="-2512613.73694" y="3470808.2042200007" type="priority"/>
<node id="9b32a" x="-2513184.0529899998" y="3470775.9277500007" type="priority"/>
<node id="07e1c" x="-2513229.81315" y="3470775.1987299994" type="priority"/>
<node id="76f73" x="-2512593.23997" y="3470802.84268" type="priority"/>
<node id="f2839" x="-2512589.89529" y="3470796.5518500004" type="priority"/>
<node id="dee67" x="-2512981.9617600003" y="3471846.2495600004" type="priority"/>
<node id="10896" x="-2512888.4259599997" y="3471670.5341999996" type="priority"/>
<node id="f346d" x="-2513092.73752" y="3473158.2995599993" type="priority"/>
<node id="20be8" x="-2513424.92885" y="3473027.2348299995" type="priority"/>
<node id="977c8" x="-2513379.43469" y="3472614.4377999995" type="priority"/>
<node id="d4e7f" x="-2513393.90155" y="3472613.295639999" type="priority"/>
<node id="987bc" x="-2513416.0922499998" y="3472613.6176299993" type="priority"/>
</nodes>
