<connections>
<!-- Point 175c5 b712957e-47f4-4eeb-94fe-89cf2b3175c5 -->
<connection from="0b456-0" to="5287d-0"/>
<connection from="0b456-0" to="5287d-0-re"/>
<connection from="0b456-0-re" to="5287d-0"/>
<connection from="0b456-0-re" to="5287d-0-re"/>
<connection from="063c4-0" to="5287d-0"/>
<connection from="063c4-0" to="5287d-0-re"/>
<connection from="063c4-0-re" to="5287d-0"/>
<connection from="063c4-0-re" to="5287d-0-re"/>
<connection from="5287d-0" to="0b456-0"/>
<connection from="5287d-0" to="063c4-0"/>
<connection from="5287d-0" to="0b456-0-re"/>
<connection from="5287d-0" to="063c4-0-re"/>
<connection from="5287d-0-re" to="0b456-0"/>
<connection from="5287d-0-re" to="063c4-0"/>
<connection from="5287d-0-re" to="0b456-0-re"/>
<connection from="5287d-0-re" to="063c4-0-re"/>

<!-- Point ebc35 1a31bcf9-4524-4a0e-ac16-b2e0ed7ebc35 -->
<connection from="dd5d7-0" to="44878-0"/>
<connection from="dd5d7-0" to="44878-0-re"/>
<connection from="dd5d7-0-re" to="44878-0"/>
<connection from="dd5d7-0-re" to="44878-0-re"/>
<connection from="fde02-0" to="44878-0"/>
<connection from="fde02-0" to="44878-0-re"/>
<connection from="fde02-0-re" to="44878-0"/>
<connection from="fde02-0-re" to="44878-0-re"/>
<connection from="44878-0" to="dd5d7-0"/>
<connection from="44878-0" to="fde02-0"/>
<connection from="44878-0" to="dd5d7-0-re"/>
<connection from="44878-0" to="fde02-0-re"/>
<connection from="44878-0-re" to="dd5d7-0"/>
<connection from="44878-0-re" to="fde02-0"/>
<connection from="44878-0-re" to="dd5d7-0-re"/>
<connection from="44878-0-re" to="fde02-0-re"/>

<!-- Point f2928 622cf343-0546-458e-8cce-272521cf2928 -->
<connection from="06a33-0" to="a5099-0"/>
<connection from="06a33-0" to="a5099-0-re"/>
<connection from="06a33-0-re" to="a5099-0"/>
<connection from="06a33-0-re" to="a5099-0-re"/>
<connection from="b40f2-0" to="a5099-0"/>
<connection from="b40f2-0" to="a5099-0-re"/>
<connection from="b40f2-0-re" to="a5099-0"/>
<connection from="b40f2-0-re" to="a5099-0-re"/>
<connection from="a5099-0" to="06a33-0"/>
<connection from="a5099-0" to="b40f2-0"/>
<connection from="a5099-0" to="06a33-0-re"/>
<connection from="a5099-0" to="b40f2-0-re"/>
<connection from="a5099-0-re" to="06a33-0"/>
<connection from="a5099-0-re" to="b40f2-0"/>
<connection from="a5099-0-re" to="06a33-0-re"/>
<connection from="a5099-0-re" to="b40f2-0-re"/>

<!-- Point 3f04a 83f2a0ee-3dc5-487e-b30e-e5b90fb3f04a -->
<connection from="26230-0" to="06a33-0"/>
<connection from="26230-0" to="06a33-0-re"/>
<connection from="26230-0-re" to="06a33-0"/>
<connection from="26230-0-re" to="06a33-0-re"/>
<connection from="58442-0" to="06a33-0"/>
<connection from="58442-0" to="06a33-0-re"/>
<connection from="58442-0-re" to="06a33-0"/>
<connection from="58442-0-re" to="06a33-0-re"/>
<connection from="06a33-0" to="26230-0"/>
<connection from="06a33-0" to="58442-0"/>
<connection from="06a33-0" to="26230-0-re"/>
<connection from="06a33-0" to="58442-0-re"/>
<connection from="06a33-0-re" to="26230-0"/>
<connection from="06a33-0-re" to="58442-0"/>
<connection from="06a33-0-re" to="26230-0-re"/>
<connection from="06a33-0-re" to="58442-0-re"/>
<!-- Point 4e0c9 ce974081-2f79-4a6c-95c8-b1fb1df4e0c9 -->
<connection from="a5099-0" to="a71ae-0"/>
<connection from="a5099-0" to="a71ae-0-re"/>
<connection from="a5099-0-re" to="a71ae-0"/>
<connection from="a5099-0-re" to="a71ae-0-re"/>
<connection from="4b616-0" to="a71ae-0"/>
<connection from="4b616-0" to="a71ae-0-re"/>
<connection from="4b616-0-re" to="a71ae-0"/>
<connection from="4b616-0-re" to="a71ae-0-re"/>
<connection from="a71ae-0" to="a5099-0"/>
<connection from="a71ae-0" to="4b616-0"/>
<connection from="a71ae-0" to="a5099-0-re"/>
<connection from="a71ae-0" to="4b616-0-re"/>
<connection from="a71ae-0-re" to="a5099-0"/>
<connection from="a71ae-0-re" to="4b616-0"/>
<connection from="a71ae-0-re" to="a5099-0-re"/>
<connection from="a71ae-0-re" to="4b616-0-re"/>
<!-- Point 38949 4fac6896-0ed7-4a02-9e56-bf628d338949 -->
<connection from="35748-0" to="a71ae-0"/>
<connection from="35748-0" to="a71ae-0-re"/>
<connection from="35748-0-re" to="a71ae-0"/>
<connection from="35748-0-re" to="a71ae-0-re"/>
<connection from="df633-0" to="a71ae-0"/>
<connection from="df633-0" to="a71ae-0-re"/>
<connection from="df633-0-re" to="a71ae-0"/>
<connection from="df633-0-re" to="a71ae-0-re"/>
<connection from="a71ae-0" to="35748-0"/>
<connection from="a71ae-0" to="df633-0"/>
<connection from="a71ae-0" to="35748-0-re"/>
<connection from="a71ae-0" to="df633-0-re"/>
<connection from="a71ae-0-re" to="35748-0"/>
<connection from="a71ae-0-re" to="df633-0"/>
<connection from="a71ae-0-re" to="35748-0-re"/>
<connection from="a71ae-0-re" to="df633-0-re"/>
<!-- Point 395c7 2757f8e0-b082-4bf2-b219-77c31b1395c7 -->
<connection from="44135-0" to="df633-0"/>
<connection from="44135-0" to="df633-0-re"/>
<connection from="44135-0-re" to="df633-0"/>
<connection from="44135-0-re" to="df633-0-re"/>
<connection from="ec233-0" to="df633-0"/>
<connection from="ec233-0" to="df633-0-re"/>
<connection from="ec233-0-re" to="df633-0"/>
<connection from="ec233-0-re" to="df633-0-re"/>
<connection from="df633-0" to="44135-0"/>
<connection from="df633-0" to="ec233-0"/>
<connection from="df633-0" to="44135-0-re"/>
<connection from="df633-0" to="ec233-0-re"/>
<connection from="df633-0-re" to="44135-0"/>
<connection from="df633-0-re" to="ec233-0"/>
<connection from="df633-0-re" to="44135-0-re"/>
<connection from="df633-0-re" to="ec233-0-re"/>
<!-- Point 554a2 9c41a152-461a-452e-9daf-41e243a554a2 -->
<connection from="cb705-0" to="245b6-0"/>
<connection from="cb705-0" to="245b6-0-re"/>
<connection from="cb705-0-re" to="245b6-0"/>
<connection from="cb705-0-re" to="245b6-0-re"/>
<connection from="44135-0" to="245b6-0"/>
<connection from="44135-0" to="245b6-0-re"/>
<connection from="44135-0-re" to="245b6-0"/>
<connection from="44135-0-re" to="245b6-0-re"/>
<connection from="245b6-0" to="cb705-0"/>
<connection from="245b6-0" to="44135-0"/>
<connection from="245b6-0" to="cb705-0-re"/>
<connection from="245b6-0" to="44135-0-re"/>
<connection from="245b6-0-re" to="cb705-0"/>
<connection from="245b6-0-re" to="44135-0"/>
<connection from="245b6-0-re" to="cb705-0-re"/>
<connection from="245b6-0-re" to="44135-0-re"/>

<!-- Point 23182 42afb141-dbf2-4195-b1bf-706915323182 -->
<connection from="e1a25-0" to="6335c-0"/>
<connection from="e1a25-0" to="6335c-0-re"/>
<connection from="e1a25-0-re" to="6335c-0"/>
<connection from="e1a25-0-re" to="6335c-0-re"/>
<connection from="a1ea5-0" to="6335c-0"/>
<connection from="a1ea5-0" to="6335c-0-re"/>
<connection from="a1ea5-0-re" to="6335c-0"/>
<connection from="a1ea5-0-re" to="6335c-0-re"/>
<connection from="6335c-0" to="e1a25-0"/>
<connection from="6335c-0" to="a1ea5-0"/>
<connection from="6335c-0" to="e1a25-0-re"/>
<connection from="6335c-0" to="a1ea5-0-re"/>
<connection from="6335c-0-re" to="e1a25-0"/>
<connection from="6335c-0-re" to="a1ea5-0"/>
<connection from="6335c-0-re" to="e1a25-0-re"/>
<connection from="6335c-0-re" to="a1ea5-0-re"/>




<!-- Point 5e60b 54c2a501-3d67-45d8-b5c1-5fbf0af5e60b -->
<connection from="ec233-0" to="f9138-0"/>
<connection from="ec233-0" to="f9138-0-re"/>
<connection from="ec233-0-re" to="f9138-0"/>
<connection from="ec233-0-re" to="f9138-0-re"/>
<connection from="cb705-0" to="f9138-0"/>
<connection from="cb705-0" to="f9138-0-re"/>
<connection from="cb705-0-re" to="f9138-0"/>
<connection from="cb705-0-re" to="f9138-0-re"/>
<connection from="f9138-0" to="ec233-0"/>
<connection from="f9138-0" to="cb705-0"/>
<connection from="f9138-0" to="ec233-0-re"/>
<connection from="f9138-0" to="cb705-0-re"/>
<connection from="f9138-0-re" to="ec233-0"/>
<connection from="f9138-0-re" to="cb705-0"/>
<connection from="f9138-0-re" to="ec233-0-re"/>
<connection from="f9138-0-re" to="cb705-0-re"/>
<!-- Point c3dc2 09cb2985-c6c1-4844-aa40-7bff638c3dc2 -->
<connection from="9ebe7-0" to="dae0c-0"/>
<connection from="9ebe7-0" to="dae0c-0-re"/>
<connection from="9ebe7-0-re" to="dae0c-0"/>
<connection from="9ebe7-0-re" to="dae0c-0-re"/>
<connection from="5287d-0" to="dae0c-0"/>
<connection from="5287d-0" to="dae0c-0-re"/>
<connection from="5287d-0-re" to="dae0c-0"/>
<connection from="5287d-0-re" to="dae0c-0-re"/>
<connection from="dae0c-0" to="9ebe7-0"/>
<connection from="dae0c-0" to="5287d-0"/>
<connection from="dae0c-0" to="9ebe7-0-re"/>
<connection from="dae0c-0" to="5287d-0-re"/>
<connection from="dae0c-0-re" to="9ebe7-0"/>
<connection from="dae0c-0-re" to="5287d-0"/>
<connection from="dae0c-0-re" to="9ebe7-0-re"/>
<connection from="dae0c-0-re" to="5287d-0-re"/>
<!-- Point d1d00 8f991413-40d0-4911-911f-eb029f6d1d00 -->
<connection from="178b4-0" to="dae0c-0"/>
<connection from="178b4-0" to="dae0c-0-re"/>
<connection from="178b4-0-re" to="dae0c-0"/>
<connection from="178b4-0-re" to="dae0c-0-re"/>
<connection from="61a74-0" to="dae0c-0"/>
<connection from="61a74-0" to="dae0c-0-re"/>
<connection from="61a74-0-re" to="dae0c-0"/>
<connection from="61a74-0-re" to="dae0c-0-re"/>
<connection from="dae0c-0" to="178b4-0"/>
<connection from="dae0c-0" to="61a74-0"/>
<connection from="dae0c-0" to="178b4-0-re"/>
<connection from="dae0c-0" to="61a74-0-re"/>
<connection from="dae0c-0-re" to="178b4-0"/>
<connection from="dae0c-0-re" to="61a74-0"/>
<connection from="dae0c-0-re" to="178b4-0-re"/>
<connection from="dae0c-0-re" to="61a74-0-re"/>
<!-- Point eb3ea b1ee5dc4-a084-48ed-93d8-1b71df0eb3ea -->
<connection from="023b0-0" to="178b4-0"/>
<connection from="023b0-0" to="178b4-0-re"/>
<connection from="023b0-0-re" to="178b4-0"/>
<connection from="023b0-0-re" to="178b4-0-re"/>
<connection from="b5561-0" to="178b4-0"/>
<connection from="b5561-0" to="178b4-0-re"/>
<connection from="b5561-0-re" to="178b4-0"/>
<connection from="b5561-0-re" to="178b4-0-re"/>
<connection from="178b4-0" to="023b0-0"/>
<connection from="178b4-0" to="b5561-0"/>
<connection from="178b4-0" to="023b0-0-re"/>
<connection from="178b4-0" to="b5561-0-re"/>
<connection from="178b4-0-re" to="023b0-0"/>
<connection from="178b4-0-re" to="b5561-0"/>
<connection from="178b4-0-re" to="023b0-0-re"/>
<connection from="178b4-0-re" to="b5561-0-re"/>
<!-- Point 77c11 41533d10-e65d-4d3d-aa51-8a36a5e77c11 -->
<connection from="b2591-0" to="a3979-0"/>
<connection from="b2591-0" to="a3979-0-re"/>
<connection from="b2591-0-re" to="a3979-0"/>
<connection from="b2591-0-re" to="a3979-0-re"/>
<connection from="023b0-0" to="a3979-0"/>
<connection from="023b0-0" to="a3979-0-re"/>
<connection from="023b0-0-re" to="a3979-0"/>
<connection from="023b0-0-re" to="a3979-0-re"/>
<connection from="a3979-0" to="b2591-0"/>
<connection from="a3979-0" to="023b0-0"/>
<connection from="a3979-0" to="b2591-0-re"/>
<connection from="a3979-0" to="023b0-0-re"/>
<connection from="a3979-0-re" to="b2591-0"/>
<connection from="a3979-0-re" to="023b0-0"/>
<connection from="a3979-0-re" to="b2591-0-re"/>
<connection from="a3979-0-re" to="023b0-0-re"/>
<!-- Point 00c8d de4fa323-27ba-4991-b4cc-7a367af00c8d -->
<connection from="9f502-0" to="a3979-0"/>
<connection from="9f502-0" to="a3979-0-re"/>
<connection from="9f502-0-re" to="a3979-0"/>
<connection from="9f502-0-re" to="a3979-0-re"/>
<connection from="6ea1e-0" to="a3979-0"/>
<connection from="6ea1e-0" to="a3979-0-re"/>
<connection from="6ea1e-0-re" to="a3979-0"/>
<connection from="6ea1e-0-re" to="a3979-0-re"/>
<connection from="a3979-0" to="9f502-0"/>
<connection from="a3979-0" to="6ea1e-0"/>
<connection from="a3979-0" to="9f502-0-re"/>
<connection from="a3979-0" to="6ea1e-0-re"/>
<connection from="a3979-0-re" to="9f502-0"/>
<connection from="a3979-0-re" to="6ea1e-0"/>
<connection from="a3979-0-re" to="9f502-0-re"/>
<connection from="a3979-0-re" to="6ea1e-0-re"/>



<!-- Point bf5ee b1218d4d-c894-4ee0-abdf-55446c8bf5ee -->
<connection from="b2591-0" to="3d189-0"/>
<connection from="b2591-0" to="3d189-0-re"/>
<connection from="b2591-0-re" to="3d189-0"/>
<connection from="b2591-0-re" to="3d189-0-re"/>
<connection from="5d39f-0" to="3d189-0"/>
<connection from="5d39f-0" to="3d189-0-re"/>
<connection from="5d39f-0-re" to="3d189-0"/>
<connection from="5d39f-0-re" to="3d189-0-re"/>
<connection from="3d189-0" to="b2591-0"/>
<connection from="3d189-0" to="5d39f-0"/>
<connection from="3d189-0" to="b2591-0-re"/>
<connection from="3d189-0" to="5d39f-0-re"/>
<connection from="3d189-0-re" to="b2591-0"/>
<connection from="3d189-0-re" to="5d39f-0"/>
<connection from="3d189-0-re" to="b2591-0-re"/>
<connection from="3d189-0-re" to="5d39f-0-re"/>


<!-- Point 16427 9d249dbb-07eb-4f91-ada4-8b79d7a16427 -->
<connection from="25ab3-0" to="980af-0"/>
<connection from="25ab3-0" to="980af-0-re"/>
<connection from="25ab3-0-re" to="980af-0"/>
<connection from="25ab3-0-re" to="980af-0-re"/>
<connection from="2ec20-0" to="980af-0"/>
<connection from="2ec20-0" to="980af-0-re"/>
<connection from="2ec20-0-re" to="980af-0"/>
<connection from="2ec20-0-re" to="980af-0-re"/>
<connection from="980af-0" to="25ab3-0"/>
<connection from="980af-0" to="2ec20-0"/>
<connection from="980af-0" to="25ab3-0-re"/>
<connection from="980af-0" to="2ec20-0-re"/>
<connection from="980af-0-re" to="25ab3-0"/>
<connection from="980af-0-re" to="2ec20-0"/>
<connection from="980af-0-re" to="25ab3-0-re"/>
<connection from="980af-0-re" to="2ec20-0-re"/>
<!-- Point 69cf1 d035b088-54ae-4c45-8c8b-a848ade69cf1 -->
<connection from="20ee3-0" to="25ab3-0"/>
<connection from="20ee3-0" to="25ab3-0-re"/>
<connection from="20ee3-0-re" to="25ab3-0"/>
<connection from="20ee3-0-re" to="25ab3-0-re"/>
<connection from="120a7-0" to="25ab3-0"/>
<connection from="120a7-0" to="25ab3-0-re"/>
<connection from="120a7-0-re" to="25ab3-0"/>
<connection from="120a7-0-re" to="25ab3-0-re"/>
<connection from="25ab3-0" to="20ee3-0"/>
<connection from="25ab3-0" to="120a7-0"/>
<connection from="25ab3-0" to="20ee3-0-re"/>
<connection from="25ab3-0" to="120a7-0-re"/>
<connection from="25ab3-0-re" to="20ee3-0"/>
<connection from="25ab3-0-re" to="120a7-0"/>
<connection from="25ab3-0-re" to="20ee3-0-re"/>
<connection from="25ab3-0-re" to="120a7-0-re"/>



<!-- Point 5556c 0dec594b-283c-4641-93a6-d89cc005556c -->
<connection from="a5131-0" to="3d189-0"/>
<connection from="a5131-0" to="3d189-0-re"/>
<connection from="a5131-0-re" to="3d189-0"/>
<connection from="a5131-0-re" to="3d189-0-re"/>
<connection from="b5561-0" to="3d189-0"/>
<connection from="b5561-0" to="3d189-0-re"/>
<connection from="b5561-0-re" to="3d189-0"/>
<connection from="b5561-0-re" to="3d189-0-re"/>
<connection from="3d189-0" to="a5131-0"/>
<connection from="3d189-0" to="b5561-0"/>
<connection from="3d189-0" to="a5131-0-re"/>
<connection from="3d189-0" to="b5561-0-re"/>
<connection from="3d189-0-re" to="a5131-0"/>
<connection from="3d189-0-re" to="b5561-0"/>
<connection from="3d189-0-re" to="a5131-0-re"/>
<connection from="3d189-0-re" to="b5561-0-re"/>
<!-- Point 5c8a7 d9b86d5f-7fb6-4dfa-9018-1c2d0fa5c8a7 -->
<connection from="980af-0" to="245b6-0"/>
<connection from="980af-0" to="245b6-0-re"/>
<connection from="980af-0-re" to="245b6-0"/>
<connection from="980af-0-re" to="245b6-0-re"/>
<connection from="934b9-0" to="245b6-0"/>
<connection from="934b9-0" to="245b6-0-re"/>
<connection from="934b9-0-re" to="245b6-0"/>
<connection from="934b9-0-re" to="245b6-0-re"/>
<connection from="245b6-0" to="980af-0"/>
<connection from="245b6-0" to="934b9-0"/>
<connection from="245b6-0" to="980af-0-re"/>
<connection from="245b6-0" to="934b9-0-re"/>
<connection from="245b6-0-re" to="980af-0"/>
<connection from="245b6-0-re" to="934b9-0"/>
<connection from="245b6-0-re" to="980af-0-re"/>
<connection from="245b6-0-re" to="934b9-0-re"/>
<!-- Point f139e 90df5f2c-7c22-477d-9959-f050ce4f139e -->
<connection from="8eefc-0" to="934b9-0"/>
<connection from="8eefc-0" to="934b9-0-re"/>
<connection from="8eefc-0-re" to="934b9-0"/>
<connection from="8eefc-0-re" to="934b9-0-re"/>
<connection from="62280-0" to="934b9-0"/>
<connection from="62280-0" to="934b9-0-re"/>
<connection from="62280-0-re" to="934b9-0"/>
<connection from="62280-0-re" to="934b9-0-re"/>
<connection from="934b9-0" to="8eefc-0"/>
<connection from="934b9-0" to="62280-0"/>
<connection from="934b9-0" to="8eefc-0-re"/>
<connection from="934b9-0" to="62280-0-re"/>
<connection from="934b9-0-re" to="8eefc-0"/>
<connection from="934b9-0-re" to="62280-0"/>
<connection from="934b9-0-re" to="8eefc-0-re"/>
<connection from="934b9-0-re" to="62280-0-re"/>

<!-- Point 76c61 170d3271-7d77-460a-85f8-4046d7976c61 -->
<connection from="9ebe7-0" to="1fcb2-0"/>
<connection from="9ebe7-0" to="1fcb2-0-re"/>
<connection from="9ebe7-0-re" to="1fcb2-0"/>
<connection from="9ebe7-0-re" to="1fcb2-0-re"/>
<connection from="77e99-0" to="1fcb2-0"/>
<connection from="77e99-0" to="1fcb2-0-re"/>
<connection from="77e99-0-re" to="1fcb2-0"/>
<connection from="77e99-0-re" to="1fcb2-0-re"/>
<connection from="1fcb2-0" to="9ebe7-0"/>
<connection from="1fcb2-0" to="77e99-0"/>
<connection from="1fcb2-0" to="9ebe7-0-re"/>
<connection from="1fcb2-0" to="77e99-0-re"/>
<connection from="1fcb2-0-re" to="9ebe7-0"/>
<connection from="1fcb2-0-re" to="77e99-0"/>
<connection from="1fcb2-0-re" to="9ebe7-0-re"/>
<connection from="1fcb2-0-re" to="77e99-0-re"/>

<!-- Point 2fa28 1bd6d766-bf9b-4ad1-a7c0-62ac9ba2fa28 -->
<connection from="9f502-0" to="25c77-0"/>
<connection from="9f502-0" to="25c77-0-re"/>
<connection from="9f502-0-re" to="25c77-0"/>
<connection from="9f502-0-re" to="25c77-0-re"/>
<connection from="db357-0" to="25c77-0"/>
<connection from="db357-0" to="25c77-0-re"/>
<connection from="db357-0-re" to="25c77-0"/>
<connection from="db357-0-re" to="25c77-0-re"/>
<connection from="25c77-0" to="9f502-0"/>
<connection from="25c77-0" to="db357-0"/>
<connection from="25c77-0" to="9f502-0-re"/>
<connection from="25c77-0" to="db357-0-re"/>
<connection from="25c77-0-re" to="9f502-0"/>
<connection from="25c77-0-re" to="db357-0"/>
<connection from="25c77-0-re" to="9f502-0-re"/>
<connection from="25c77-0-re" to="db357-0-re"/>
<!-- Point ae7e1 7acd9d2f-6eda-4f07-8bce-50c0a14ae7e1 -->
<connection from="77e99-0" to="a5131-0"/>
<connection from="77e99-0" to="a5131-0-re"/>
<connection from="77e99-0-re" to="a5131-0"/>
<connection from="77e99-0-re" to="a5131-0-re"/>
<connection from="61a74-0" to="a5131-0"/>
<connection from="61a74-0" to="a5131-0-re"/>
<connection from="61a74-0-re" to="a5131-0"/>
<connection from="61a74-0-re" to="a5131-0-re"/>
<connection from="a5131-0" to="77e99-0"/>
<connection from="a5131-0" to="61a74-0"/>
<connection from="a5131-0" to="77e99-0-re"/>
<connection from="a5131-0" to="61a74-0-re"/>
<connection from="a5131-0-re" to="77e99-0"/>
<connection from="a5131-0-re" to="61a74-0"/>
<connection from="a5131-0-re" to="77e99-0-re"/>
<connection from="a5131-0-re" to="61a74-0-re"/>



<!-- Point 23aac 9182b0bd-6bd3-4d9e-80d7-a84be4a23aac -->
<connection from="5d39f-0" to="e0242-0"/>
<connection from="5d39f-0" to="e0242-0-re"/>
<connection from="5d39f-0-re" to="e0242-0"/>
<connection from="5d39f-0-re" to="e0242-0-re"/>
<connection from="865d9-0" to="e0242-0"/>
<connection from="865d9-0" to="e0242-0-re"/>
<connection from="865d9-0-re" to="e0242-0"/>
<connection from="865d9-0-re" to="e0242-0-re"/>
<connection from="e0242-0" to="5d39f-0"/>
<connection from="e0242-0" to="865d9-0"/>
<connection from="e0242-0" to="5d39f-0-re"/>
<connection from="e0242-0" to="865d9-0-re"/>
<connection from="e0242-0-re" to="5d39f-0"/>
<connection from="e0242-0-re" to="865d9-0"/>
<connection from="e0242-0-re" to="5d39f-0-re"/>
<connection from="e0242-0-re" to="865d9-0-re"/>


<!-- Point 4d5ef 3d180891-8aa5-4a3a-afa4-e6d43af4d5ef -->
<connection from="d9b6e-0" to="4eb09-0"/>
<connection from="d9b6e-0" to="4eb09-0-re"/>
<connection from="d9b6e-0-re" to="4eb09-0"/>
<connection from="d9b6e-0-re" to="4eb09-0-re"/>
<connection from="9cb6f-0" to="4eb09-0"/>
<connection from="9cb6f-0" to="4eb09-0-re"/>
<connection from="9cb6f-0-re" to="4eb09-0"/>
<connection from="9cb6f-0-re" to="4eb09-0-re"/>
<connection from="4eb09-0" to="d9b6e-0"/>
<connection from="4eb09-0" to="9cb6f-0"/>
<connection from="4eb09-0" to="d9b6e-0-re"/>
<connection from="4eb09-0" to="9cb6f-0-re"/>
<connection from="4eb09-0-re" to="d9b6e-0"/>
<connection from="4eb09-0-re" to="9cb6f-0"/>
<connection from="4eb09-0-re" to="d9b6e-0-re"/>
<connection from="4eb09-0-re" to="9cb6f-0-re"/>
<!-- Point 0df18 0d0a9872-2fa9-45d0-996c-481727c0df18 -->
<connection from="a06fe-0" to="6335c-0"/>
<connection from="a06fe-0" to="6335c-0-re"/>
<connection from="a06fe-0-re" to="6335c-0"/>
<connection from="a06fe-0-re" to="6335c-0-re"/>
<connection from="9cb6f-0" to="6335c-0"/>
<connection from="9cb6f-0" to="6335c-0-re"/>
<connection from="9cb6f-0-re" to="6335c-0"/>
<connection from="9cb6f-0-re" to="6335c-0-re"/>
<connection from="6335c-0" to="a06fe-0"/>
<connection from="6335c-0" to="9cb6f-0"/>
<connection from="6335c-0" to="a06fe-0-re"/>
<connection from="6335c-0" to="9cb6f-0-re"/>
<connection from="6335c-0-re" to="a06fe-0"/>
<connection from="6335c-0-re" to="9cb6f-0"/>
<connection from="6335c-0-re" to="a06fe-0-re"/>
<connection from="6335c-0-re" to="9cb6f-0-re"/>



<!-- Point 9e734 e563ce79-0b90-42c4-b714-4f500119e734 -->
<connection from="35748-0" to="d27d2-0"/>
<connection from="35748-0" to="d27d2-0-re"/>
<connection from="35748-0-re" to="d27d2-0"/>
<connection from="35748-0-re" to="d27d2-0-re"/>
<connection from="a1ea5-0" to="d27d2-0"/>
<connection from="a1ea5-0" to="d27d2-0-re"/>
<connection from="a1ea5-0-re" to="d27d2-0"/>
<connection from="a1ea5-0-re" to="d27d2-0-re"/>
<connection from="d27d2-0" to="35748-0"/>
<connection from="d27d2-0" to="a1ea5-0"/>
<connection from="d27d2-0" to="35748-0-re"/>
<connection from="d27d2-0" to="a1ea5-0-re"/>
<connection from="d27d2-0-re" to="35748-0"/>
<connection from="d27d2-0-re" to="a1ea5-0"/>
<connection from="d27d2-0-re" to="35748-0-re"/>
<connection from="d27d2-0-re" to="a1ea5-0-re"/>
<!-- Point dcdc5 18286045-8513-4de2-99b2-f3078ebdcdc5 -->
<connection from="a06fe-0" to="44878-0"/>
<connection from="a06fe-0" to="44878-0-re"/>
<connection from="a06fe-0-re" to="44878-0"/>
<connection from="a06fe-0-re" to="44878-0-re"/>
<connection from="4b616-0" to="44878-0"/>
<connection from="4b616-0" to="44878-0-re"/>
<connection from="4b616-0-re" to="44878-0"/>
<connection from="4b616-0-re" to="44878-0-re"/>
<connection from="44878-0" to="a06fe-0"/>
<connection from="44878-0" to="4b616-0"/>
<connection from="44878-0" to="a06fe-0-re"/>
<connection from="44878-0" to="4b616-0-re"/>
<connection from="44878-0-re" to="a06fe-0"/>
<connection from="44878-0-re" to="4b616-0"/>
<connection from="44878-0-re" to="a06fe-0-re"/>
<connection from="44878-0-re" to="4b616-0-re"/>



<!-- Point aebe0 17508066-960f-45cb-9775-29a0fddaebe0 -->
<connection from="063c4-0" to="d9b6e-0"/>
<connection from="063c4-0" to="d9b6e-0-re"/>
<connection from="063c4-0-re" to="d9b6e-0"/>
<connection from="063c4-0-re" to="d9b6e-0-re"/>
<connection from="9d3dc-0" to="d9b6e-0"/>
<connection from="9d3dc-0" to="d9b6e-0-re"/>
<connection from="9d3dc-0-re" to="d9b6e-0"/>
<connection from="9d3dc-0-re" to="d9b6e-0-re"/>
<connection from="d9b6e-0" to="063c4-0"/>
<connection from="d9b6e-0" to="9d3dc-0"/>
<connection from="d9b6e-0" to="063c4-0-re"/>
<connection from="d9b6e-0" to="9d3dc-0-re"/>
<connection from="d9b6e-0-re" to="063c4-0"/>
<connection from="d9b6e-0-re" to="9d3dc-0"/>
<connection from="d9b6e-0-re" to="063c4-0-re"/>
<connection from="d9b6e-0-re" to="9d3dc-0-re"/>
<!-- Point d3c93 bb740f42-ddf5-408f-b80a-56e7edbd3c93 -->
<connection from="9b15b-0" to="1fcb2-0"/>
<connection from="9b15b-0" to="1fcb2-0-re"/>
<connection from="9b15b-0-re" to="1fcb2-0"/>
<connection from="9b15b-0-re" to="1fcb2-0-re"/>
<connection from="ae00e-0" to="1fcb2-0"/>
<connection from="ae00e-0" to="1fcb2-0-re"/>
<connection from="ae00e-0-re" to="1fcb2-0"/>
<connection from="ae00e-0-re" to="1fcb2-0-re"/>
<connection from="1fcb2-0" to="9b15b-0"/>
<connection from="1fcb2-0" to="ae00e-0"/>
<connection from="1fcb2-0" to="9b15b-0-re"/>
<connection from="1fcb2-0" to="ae00e-0-re"/>
<connection from="1fcb2-0-re" to="9b15b-0"/>
<connection from="1fcb2-0-re" to="ae00e-0"/>
<connection from="1fcb2-0-re" to="9b15b-0-re"/>
<connection from="1fcb2-0-re" to="ae00e-0-re"/>
<!-- Point 1162f 118ade5b-f9b3-415e-ab40-f149b7e1162f -->
<connection from="63988-0" to="9b15b-0"/>
<connection from="63988-0" to="9b15b-0-re"/>
<connection from="63988-0-re" to="9b15b-0"/>
<connection from="63988-0-re" to="9b15b-0-re"/>
<connection from="d3329-0" to="9b15b-0"/>
<connection from="d3329-0" to="9b15b-0-re"/>
<connection from="d3329-0-re" to="9b15b-0"/>
<connection from="d3329-0-re" to="9b15b-0-re"/>
<connection from="9b15b-0" to="63988-0"/>
<connection from="9b15b-0" to="d3329-0"/>
<connection from="9b15b-0" to="63988-0-re"/>
<connection from="9b15b-0" to="d3329-0-re"/>
<connection from="9b15b-0-re" to="63988-0"/>
<connection from="9b15b-0-re" to="d3329-0"/>
<connection from="9b15b-0-re" to="63988-0-re"/>
<connection from="9b15b-0-re" to="d3329-0-re"/>


<!-- Point a8a6c 221d421b-9f00-40bf-952d-cb4f588a8a6c -->
<connection from="ae08e-0" to="85d1c-0"/>
<connection from="ae08e-0" to="85d1c-0-re"/>
<connection from="ae08e-0-re" to="85d1c-0"/>
<connection from="ae08e-0-re" to="85d1c-0-re"/>
<connection from="c2561-0" to="85d1c-0"/>
<connection from="c2561-0" to="85d1c-0-re"/>
<connection from="c2561-0-re" to="85d1c-0"/>
<connection from="c2561-0-re" to="85d1c-0-re"/>
<connection from="85d1c-0" to="ae08e-0"/>
<connection from="85d1c-0" to="c2561-0"/>
<connection from="85d1c-0" to="ae08e-0-re"/>
<connection from="85d1c-0" to="c2561-0-re"/>
<connection from="85d1c-0-re" to="ae08e-0"/>
<connection from="85d1c-0-re" to="c2561-0"/>
<connection from="85d1c-0-re" to="ae08e-0-re"/>
<connection from="85d1c-0-re" to="c2561-0-re"/>
<!-- Point ec7c9 1d1821a5-6274-46a6-b092-086f6daec7c9 -->
<connection from="85d1c-0" to="8a7ad-0"/>
<connection from="85d1c-0" to="8a7ad-0-re"/>
<connection from="85d1c-0-re" to="8a7ad-0"/>
<connection from="85d1c-0-re" to="8a7ad-0-re"/>
<connection from="0e61f-0" to="8a7ad-0"/>
<connection from="0e61f-0" to="8a7ad-0-re"/>
<connection from="0e61f-0-re" to="8a7ad-0"/>
<connection from="0e61f-0-re" to="8a7ad-0-re"/>
<connection from="8a7ad-0" to="85d1c-0"/>
<connection from="8a7ad-0" to="0e61f-0"/>
<connection from="8a7ad-0" to="85d1c-0-re"/>
<connection from="8a7ad-0" to="0e61f-0-re"/>
<connection from="8a7ad-0-re" to="85d1c-0"/>
<connection from="8a7ad-0-re" to="0e61f-0"/>
<connection from="8a7ad-0-re" to="85d1c-0-re"/>
<connection from="8a7ad-0-re" to="0e61f-0-re"/>
<!-- Point 3d113 87d89ca3-0f58-4a21-be55-d877e763d113 -->
<connection from="a7cbf-0" to="8a7ad-0"/>
<connection from="a7cbf-0" to="8a7ad-0-re"/>
<connection from="a7cbf-0-re" to="8a7ad-0"/>
<connection from="a7cbf-0-re" to="8a7ad-0-re"/>
<connection from="d998f-0" to="8a7ad-0"/>
<connection from="d998f-0" to="8a7ad-0-re"/>
<connection from="d998f-0-re" to="8a7ad-0"/>
<connection from="d998f-0-re" to="8a7ad-0-re"/>
<connection from="8a7ad-0" to="a7cbf-0"/>
<connection from="8a7ad-0" to="d998f-0"/>
<connection from="8a7ad-0" to="a7cbf-0-re"/>
<connection from="8a7ad-0" to="d998f-0-re"/>
<connection from="8a7ad-0-re" to="a7cbf-0"/>
<connection from="8a7ad-0-re" to="d998f-0"/>
<connection from="8a7ad-0-re" to="a7cbf-0-re"/>
<connection from="8a7ad-0-re" to="d998f-0-re"/>


<!-- Point dcee6 43954efc-e578-45b9-a0c4-d7defcadcee6 -->
<connection from="a7cbf-0" to="60741-0"/>
<connection from="a7cbf-0" to="60741-0-re"/>
<connection from="a7cbf-0-re" to="60741-0"/>
<connection from="a7cbf-0-re" to="60741-0-re"/>
<connection from="69d5e-0" to="60741-0"/>
<connection from="69d5e-0" to="60741-0-re"/>
<connection from="69d5e-0-re" to="60741-0"/>
<connection from="69d5e-0-re" to="60741-0-re"/>
<connection from="60741-0" to="a7cbf-0"/>
<connection from="60741-0" to="69d5e-0"/>
<connection from="60741-0" to="a7cbf-0-re"/>
<connection from="60741-0" to="69d5e-0-re"/>
<connection from="60741-0-re" to="a7cbf-0"/>
<connection from="60741-0-re" to="69d5e-0"/>
<connection from="60741-0-re" to="a7cbf-0-re"/>
<connection from="60741-0-re" to="69d5e-0-re"/>
<!-- Point 81889 6c0bc5cf-47fd-4db2-883c-a57c2af81889 -->
<connection from="69d5e-0" to="da86e-0"/>
<connection from="69d5e-0" to="da86e-0-re"/>
<connection from="69d5e-0-re" to="da86e-0"/>
<connection from="69d5e-0-re" to="da86e-0-re"/>
<connection from="0e61f-0" to="da86e-0"/>
<connection from="0e61f-0" to="da86e-0-re"/>
<connection from="0e61f-0-re" to="da86e-0"/>
<connection from="0e61f-0-re" to="da86e-0-re"/>
<connection from="da86e-0" to="69d5e-0"/>
<connection from="da86e-0" to="0e61f-0"/>
<connection from="da86e-0" to="69d5e-0-re"/>
<connection from="da86e-0" to="0e61f-0-re"/>
<connection from="da86e-0-re" to="69d5e-0"/>
<connection from="da86e-0-re" to="0e61f-0"/>
<connection from="da86e-0-re" to="69d5e-0-re"/>
<connection from="da86e-0-re" to="0e61f-0-re"/>
<!-- Point 32e08 50683471-f227-41ab-8ecd-eeedce132e08 -->
<connection from="fe38b-0" to="da86e-0"/>
<connection from="fe38b-0" to="da86e-0-re"/>
<connection from="fe38b-0-re" to="da86e-0"/>
<connection from="fe38b-0-re" to="da86e-0-re"/>
<connection from="009c5-0" to="da86e-0"/>
<connection from="009c5-0" to="da86e-0-re"/>
<connection from="009c5-0-re" to="da86e-0"/>
<connection from="009c5-0-re" to="da86e-0-re"/>
<connection from="da86e-0" to="fe38b-0"/>
<connection from="da86e-0" to="009c5-0"/>
<connection from="da86e-0" to="fe38b-0-re"/>
<connection from="da86e-0" to="009c5-0-re"/>
<connection from="da86e-0-re" to="fe38b-0"/>
<connection from="da86e-0-re" to="009c5-0"/>
<connection from="da86e-0-re" to="fe38b-0-re"/>
<connection from="da86e-0-re" to="009c5-0-re"/>
<!-- Point f439f 4c991131-972c-475e-8069-226c5f8f439f -->
<connection from="ae00e-0" to="0b482-0"/>
<connection from="ae00e-0" to="0b482-0-re"/>
<connection from="ae00e-0-re" to="0b482-0"/>
<connection from="ae00e-0-re" to="0b482-0-re"/>
<connection from="ae08e-0" to="0b482-0"/>
<connection from="ae08e-0" to="0b482-0-re"/>
<connection from="ae08e-0-re" to="0b482-0"/>