<?xml version="1.0" encoding="UTF-8"?>

<!-- generated on 2023-04-18 11:45:08 by Eclipse SUMO netconvert Version 1.12.0
<configuration xmlns:xsi="http://www.w3.org/2001/XMLSchema-instance" xsi:noNamespaceSchemaLocation="http://sumo.dlr.de/xsd/netconvertConfiguration.xsd">

    <input>
        <node-files value="sumo-config/test_example.nod.xml"/>
        <edge-files value="sumo-config/test_example.edg.xml"/>
        <connection-files value="sumo-config/test_example.con.xml"/>
    </input>

    <output>
        <output-file value="sumo-config/test_example.net.xml"/>
    </output>

    <railway>
        <railway.topology.repair value="true"/>
        <railway.topology.repair.connect-straight value="true"/>
        <railway.topology.repair.stop-turn value="true"/>
        <railway.topology.all-bidi value="false"/>
    </railway>

    <report>
        <aggregate-warnings value="5"/>
    </report>

</configuration>
-->

<net version="1.9" junctionCornerDetail="5" limitTurnSpeed="5.50" xmlns:xsi="http://www.w3.org/2001/XMLSchema-instance" xsi:noNamespaceSchemaLocation="http://sumo.dlr.de/xsd/net_file.xsd">

    <location netOffset="2514252.72,-3469539.48" convBoundary="0.00,0.00,14228.46,5419.60" origBoundary="-2514252.72,3469539.48,-2500024.26,3474959.07" projParameter="!"/>

    <edge id=":00c8d_0" function="internal" bidi=":00c8d_3">
        <lane id=":00c8d_0_0" index="0" allow="rail rail_electric" speed="110.00" length="27.29" shape="12234.47,713.98 12218.44,691.90"/>
    </edge>
    <edge id=":00c8d_1" function="internal" bidi=":00c8d_2">
        <lane id=":00c8d_1_0" index="0" allow="rail rail_electric" speed="110.00" length="27.29" shape="12234.47,713.98 12221.31,690.08"/>
    </edge>
    <edge id=":00c8d_2" function="internal" bidi=":00c8d_1">
        <lane id=":00c8d_2_0" index="0" allow="rail rail_electric" speed="110.00" length="27.29" shape="12221.31,690.08 12234.47,713.98"/>
    </edge>
    <edge id=":00c8d_3" function="internal" bidi=":00c8d_0">
        <lane id=":00c8d_3_0" index="0" allow="rail rail_electric" speed="110.00" length="27.29" shape="12218.44,691.90 12234.47,713.98"/>
    </edge>
    <edge id=":07e1c_0" function="internal" bidi=":07e1c_3">
        <lane id=":07e1c_0_0" index="0" allow="rail rail_electric" speed="110.00" length="38.79" shape="1060.13,1236.31 1021.34,1235.70"/>
    </edge>
    <edge id=":07e1c_1" function="internal" bidi=":07e1c_2">
        <lane id=":07e1c_1_0" index="0" allow="rail rail_electric" speed="110.00" length="38.79" shape="1060.03,1232.98 1052.59,1233.57 1040.69,1234.51 1028.79,1235.36 1021.34,1235.70"/>
    </edge>
    <edge id=":07e1c_2" function="internal" bidi=":07e1c_1">
        <lane id=":07e1c_2_0" index="0" allow="rail rail_electric" speed="110.00" length="38.79" shape="1021.34,1235.70 1028.79,1235.36 1040.69,1234.51 1052.59,1233.57 1060.03,1232.98"/>
    </edge>
    <edge id=":07e1c_3" function="internal" bidi=":07e1c_0">
        <lane id=":07e1c_3_0" index="0" allow="rail rail_electric" speed="110.00" length="38.79" shape="1021.34,1235.70 1060.13,1236.31"/>
    </edge>
    <edge id=":08a2d_0" function="internal">
        <lane id=":08a2d_0_0" index="0" allow="rail rail_electric" speed="0.10" length="0.10" shape="0.00,1173.17 0.00,1173.17"/>
    </edge>
    <edge id=":0df18_0" function="internal" bidi=":0df18_3">
        <lane id=":0df18_0_0" index="0" allow="rail rail_electric" speed="110.00" length="49.46" shape="2708.45,4989.70 2660.68,4976.85"/>
    </edge>
    <edge id=":0df18_1" function="internal" bidi=":0df18_2">
        <lane id=":0df18_1_0" index="0" allow="rail rail_electric" speed="110.00" length="49.46" shape="2709.20,4986.48 2660.68,4976.85"/>
    </edge>
    <edge id=":0df18_2" function="internal" bidi=":0df18_1">
        <lane id=":0df18_2_0" index="0" allow="rail rail_electric" speed="110.00" length="49.46" shape="2660.68,4976.85 2709.20,4986.48"/>
    </edge>
    <edge id=":0df18_3" function="internal" bidi=":0df18_0">
        <lane id=":0df18_3_0" index="0" allow="rail rail_electric" speed="110.00" length="49.46" shape="2660.68,4976.85 2708.45,4989.70"/>
    </edge>
    <edge id=":10896_0" function="internal" bidi=":10896_3">
        <lane id=":10896_0_0" index="0" allow="rail rail_electric" speed="110.00" length="15.81" shape="1371.67,2118.97 1363.52,2132.52"/>
    </edge>
    <edge id=":10896_1" function="internal" bidi=":10896_2">
        <lane id=":10896_1_0" index="0" allow="rail rail_electric" speed="110.00" length="15.81" shape="1368.43,2117.52 1367.38,2121.26 1366.31,2125.16 1365.07,2128.98 1363.52,2132.52"/>
    </edge>
    <edge id=":10896_2" function="internal" bidi=":10896_1">
        <lane id=":10896_2_0" index="0" allow="rail rail_electric" speed="110.00" length="15.81" shape="1363.52,2132.52 1365.07,2128.98 1366.31,2125.16 1367.38,2121.26 1368.43,2117.52"/>
    </edge>
    <edge id=":10896_3" function="internal" bidi=":10896_0">
        <lane id=":10896_3_0" index="0" allow="rail rail_electric" speed="110.00" length="15.81" shape="1363.52,2132.52 1371.67,2118.97"/>
    </edge>
    <edge id=":111fb_0" function="internal">
        <lane id=":111fb_0_0" index="0" allow="rail rail_electric" speed="0.10" length="0.10" shape="4011.76,5180.99 4011.76,5180.99"/>
    </edge>
    <edge id=":1162f_0" function="internal" bidi=":1162f_3">
        <lane id=":1162f_0_0" index="0" allow="rail rail_electric" speed="110.00" length="45.10" shape="2236.21,1329.84 2191.11,1329.91"/>
    </edge>
    <edge id=":1162f_1" function="internal" bidi=":1162f_2">
        <lane id=":1162f_1_0" index="0" allow="rail rail_electric" speed="110.00" length="45.10" shape="2236.21,1329.84 2191.22,1326.60"/>
    </edge>
    <edge id=":1162f_2" function="internal" bidi=":1162f_1">
        <lane id=":1162f_2_0" index="0" allow="rail rail_electric" speed="110.00" length="45.10" shape="2191.22,1326.60 2236.21,1329.84"/>
    </edge>
    <edge id=":1162f_3" function="internal" bidi=":1162f_0">
        <lane id=":1162f_3_0" index="0" allow="rail rail_electric" speed="110.00" length="45.10" shape="2191.11,1329.91 2236.21,1329.84"/>
    </edge>
    <edge id=":16427_0" function="internal" bidi=":16427_3">
        <lane id=":16427_0_0" index="0" allow="rail rail_electric" speed="110.00" length="47.36" shape="1026.46,4637.22 980.14,4627.35"/>
    </edge>
    <edge id=":16427_1" function="internal" bidi=":16427_2">
        <lane id=":16427_1_0" index="0" allow="rail rail_electric" speed="110.00" length="47.36" shape="1026.46,4637.22 980.94,4624.14"/>
    </edge>
    <edge id=":16427_2" function="internal" bidi=":16427_1">
        <lane id=":16427_2_0" index="0" allow="rail rail_electric" speed="110.00" length="47.36" shape="980.94,4624.14 1026.46,4637.22"/>
    </edge>
    <edge id=":16427_3" function="internal" bidi=":16427_0">
        <lane id=":16427_3_0" index="0" allow="rail rail_electric" speed="110.00" length="47.36" shape="980.14,4627.35 1026.46,4637.22"/>
    </edge>
    <edge id=":175c5_0" function="internal" bidi=":175c5_3">
        <lane id=":175c5_0_0" index="0" allow="rail rail_electric" speed="110.00" length="16.59" shape="1533.57,1928.69 1526.06,1943.49"/>
    </edge>
    <edge id=":175c5_1" function="internal" bidi=":175c5_2">
        <lane id=":175c5_1_0" index="0" allow="rail rail_electric" speed="110.00" length="16.59" shape="1533.57,1928.69 1531.40,1932.03 1528.68,1935.34 1525.79,1938.54 1523.12,1941.53"/>
    </edge>
    <edge id=":175c5_2" function="internal" bidi=":175c5_1">
        <lane id=":175c5_2_0" index="0" allow="rail rail_electric" speed="110.00" length="16.59" shape="1523.12,1941.53 1525.79,1938.54 1528.68,1935.34 1531.40,1932.03 1533.57,1928.69"/>
    </edge>
    <edge id=":175c5_3" function="internal" bidi=":175c5_0">
        <lane id=":175c5_3_0" index="0" allow="rail rail_electric" speed="110.00" length="16.59" shape="1526.06,1943.49 1533.57,1928.69"/>
    </edge>
    <edge id=":1def9_0" function="internal">
        <lane id=":1def9_0_0" index="0" allow="rail rail_electric" speed="0.10" length="0.10" shape="1095.73,4637.77 1095.73,4637.77"/>
    </edge>
    <edge id=":20be8_0" function="internal">
        <lane id=":20be8_0_0" index="0" allow="rail rail_electric" speed="0.10" length="0.10" shape="827.79,3487.76 827.79,3487.76"/>
    </edge>
    <edge id=":22f76_0" function="internal">
        <lane id=":22f76_0_0" index="0" allow="rail rail_electric" speed="0.10" length="0.10" shape="11757.90,101.68 11757.90,101.68"/>
    </edge>
    <edge id=":23182_0" function="internal" bidi=":23182_3">
        <lane id=":23182_0_0" index="0" allow="rail rail_electric" speed="110.00" length="46.71" shape="2617.98,4967.56 2572.30,4957.81"/>
    </edge>
    <edge id=":23182_1" function="internal" bidi=":23182_2">
        <lane id=":23182_1_0" index="0" allow="rail rail_electric" speed="110.00" length="46.71" shape="2617.98,4967.56 2573.10,4954.61"/>
    </edge>
    <edge id=":23182_2" function="internal" bidi=":23182_1">
        <lane id=":23182_2_0" index="0" allow="rail rail_electric" speed="110.00" length="46.71" shape="2573.10,4954.61 2617.98,4967.56"/>
    </edge>
    <edge id=":23182_3" function="internal" bidi=":23182_0">
        <lane id=":23182_3_0" index="0" allow="rail rail_electric" speed="110.00" length="46.71" shape="2572.30,4957.81 2617.98,4967.56"/>
    </edge>
    <edge id=":233ae_0" function="internal" bidi=":233ae_3">
        <lane id=":233ae_0_0" index="0" allow="rail rail_electric" speed="110.00" length="48.05" shape="1131.38,1249.00 1083.46,1245.49"/>
    </edge>
    <edge id=":233ae_1" function="internal" bidi=":233ae_2">
        <lane id=":233ae_1_0" index="0" allow="rail rail_electric" speed="110.00" length="48.05" shape="1131.51,1245.70 1083.46,1245.49"/>
    </edge>
    <edge id=":233ae_2" function="internal" bidi=":233ae_1">
        <lane id=":233ae_2_0" index="0" allow="rail rail_electric" speed="110.00" length="48.05" shape="1083.46,1245.49 1131.51,1245.70"/>
    </edge>
    <edge id=":233ae_3" function="internal" bidi=":233ae_0">
        <lane id=":233ae_3_0" index="0" allow="rail rail_electric" speed="110.00" length="48.05" shape="1083.46,1245.49 1131.38,1249.00"/>
    </edge>
    <edge id=":23aac_0" function="internal" bidi=":23aac_3">
        <lane id=":23aac_0_0" index="0" allow="rail rail_electric" speed="110.00" length="66.84" shape="13565.47,478.06 13511.16,517.02"/>
    </edge>
    <edge id=":23aac_1" function="internal" bidi=":23aac_2">
        <lane id=":23aac_1_0" index="0" allow="rail rail_electric" speed="110.00" length="66.85" shape="13565.47,478.06 13509.29,514.28"/>
    </edge>
    <edge id=":23aac_2" function="internal" bidi=":23aac_1">
        <lane id=":23aac_2_0" index="0" allow="rail rail_electric" speed="110.00" length="66.85" shape="13509.29,514.28 13565.47,478.06"/>
    </edge>
    <edge id=":23aac_3" function="internal" bidi=":23aac_0">
        <lane id=":23aac_3_0" index="0" allow="rail rail_electric" speed="110.00" length="66.84" shape="13511.16,517.02 13565.47,478.06"/>
    </edge>
    <edge id=":2523d_0" function="internal">
        <lane id=":2523d_0_0" index="0" allow="rail rail_electric" speed="0.10" length="0.10" shape="289.69,4458.38 289.69,4458.38"/>
    </edge>
    <edge id=":2fa28_0" function="internal" bidi=":2fa28_3">
        <lane id=":2fa28_0_0" index="0" allow="rail rail_electric" speed="110.00" length="35.21" shape="12204.14,658.66 12200.79,652.61 12195.55,643.29 12190.19,634.03 12186.53,628.18"/>
    </edge>
    <edge id=":2fa28_1" function="internal" bidi=":2fa28_2">
        <lane id=":2fa28_1_0" index="0" allow="rail rail_electric" speed="110.00" length="35.20" shape="12206.98,656.84 12186.53,628.18"/>
    </edge>
    <edge id=":2fa28_2" function="internal" bidi=":2fa28_1">
        <lane id=":2fa28_2_0" index="0" allow="rail rail_electric" speed="110.00" length="35.20" shape="12186.53,628.18 12206.98,656.84"/>
    </edge>
    <edge id=":2fa28_3" function="internal" bidi=":2fa28_0">
        <lane id=":2fa28_3_0" index="0" allow="rail rail_electric" speed="110.00" length="35.21" shape="12186.53,628.18 12190.19,634.03 12195.55,643.29 12200.79,652.61 12204.14,658.66"/>
    </edge>
    <edge id=":32e08_0" function="internal" bidi=":32e08_3">
        <lane id=":32e08_0_0" index="0" allow="rail rail_electric" speed="110.00" length="58.81" shape="987.73,1238.43 929.08,1234.11"/>
    </edge>
    <edge id=":32e08_1" function="internal" bidi=":32e08_2">
        <lane id=":32e08_1_0" index="0" allow="rail rail_electric" speed="110.00" length="58.81" shape="987.87,1235.15 929.08,1234.11"/>
    </edge>
    <edge id=":32e08_2" function="internal" bidi=":32e08_1">
        <lane id=":32e08_2_0" index="0" allow="rail rail_electric" speed="110.00" length="58.81" shape="929.08,1234.11 987.87,1235.15"/>
    </edge>
    <edge id=":32e08_3" function="internal" bidi=":32e08_0">
        <lane id=":32e08_3_0" index="0" allow="rail rail_electric" speed="110.00" length="58.81" shape="929.08,1234.11 987.73,1238.43"/>
    </edge>
    <edge id=":38949_0" function="internal" bidi=":38949_3">
        <lane id=":38949_0_0" index="0" allow="rail rail_electric" speed="110.00" length="50.07" shape="2616.89,4975.22 2567.90,4964.85"/>
    </edge>
    <edge id=":38949_1" function="internal" bidi=":38949_2">
        <lane id=":38949_1_0" index="0" allow="rail rail_electric" speed="110.00" length="50.07" shape="2616.89,4975.22 2568.70,4961.65"/>
    </edge>
    <edge id=":38949_2" function="internal" bidi=":38949_1">
        <lane id=":38949_2_0" index="0" allow="rail rail_electric" speed="110.00" length="50.07" shape="2568.70,4961.65 2616.89,4975.22"/>
    </edge>
    <edge id=":38949_3" function="internal" bidi=":38949_0">
        <lane id=":38949_3_0" index="0" allow="rail rail_electric" speed="110.00" length="50.07" shape="2567.90,4964.85 2616.89,4975.22"/>
    </edge>
    <edge id=":395c7_0" function="internal" bidi=":395c7_3">
        <lane id=":395c7_0_0" index="0" allow="rail rail_electric" speed="110.00" length="46.98" shape="2308.35,4909.94 2261.82,4903.42"/>
    </edge>
    <edge id=":395c7_1" function="internal" bidi=":395c7_2">
        <lane id=":395c7_1_0" index="0" allow="rail rail_electric" speed="110.00" length="46.98" shape="2308.35,4909.94 2262.39,4900.16"/>
    </edge>
    <edge id=":395c7_2" function="internal" bidi=":395c7_1">
        <lane id=":395c7_2_0" index="0" allow="rail rail_electric" speed="110.00" length="46.98" shape="2262.39,4900.16 2308.35,4909.94"/>
    </edge>
    <edge id=":395c7_3" function="internal" bidi=":395c7_0">
        <lane id=":395c7_3_0" index="0" allow="rail rail_electric" speed="110.00" length="46.98" shape="2261.82,4903.42 2308.35,4909.94"/>
    </edge>
    <edge id=":3d113_0" function="internal" bidi=":3d113_3">
        <lane id=":3d113_0_0" index="0" allow="rail rail_electric" speed="110.00" length="50.48" shape="680.44,1223.49 630.10,1219.77"/>
    </edge>
    <edge id=":3d113_1" function="internal" bidi=":3d113_2">
        <lane id=":3d113_1_0" index="0" allow="rail rail_electric" speed="110.00" length="50.48" shape="680.44,1223.49 630.45,1216.49"/>
    </edge>
    <edge id=":3d113_2" function="internal" bidi=":3d113_1">
        <lane id=":3d113_2_0" index="0" allow="rail rail_electric" speed="110.00" length="50.48" shape="630.45,1216.49 680.44,1223.49"/>
    </edge>
    <edge id=":3d113_3" function="internal" bidi=":3d113_0">
        <lane id=":3d113_3_0" index="0" allow="rail rail_electric" speed="110.00" length="50.48" shape="630.10,1219.77 680.44,1223.49"/>
    </edge>
    <edge id=":3f04a_0" function="internal" bidi=":3f04a_3">
        <lane id=":3f04a_0_0" index="0" allow="rail rail_electric" speed="110.00" length="52.85" shape="2999.45,5083.85 2948.74,5068.95"/>
    </edge>
    <edge id=":3f04a_1" function="internal" bidi=":3f04a_2">
        <lane id=":3f04a_1_0" index="0" allow="rail rail_electric" speed="110.00" length="52.85" shape="3000.27,5080.66 2948.74,5068.95"/>
    </edge>
    <edge id=":3f04a_2" function="internal" bidi=":3f04a_1">
        <lane id=":3f04a_2_0" index="0" allow="rail rail_electric" speed="110.00" length="52.85" shape="2948.74,5068.95 3000.27,5080.66"/>
    </edge>
    <edge id=":3f04a_3" function="internal" bidi=":3f04a_0">
        <lane id=":3f04a_3_0" index="0" allow="rail rail_electric" speed="110.00" length="52.85" shape="2948.74,5068.95 2999.45,5083.85"/>
    </edge>
    <edge id=":47218_0" function="internal">
        <lane id=":47218_0_0" index="0" allow="rail rail_electric" speed="0.10" length="0.10" shape="3.66,1165.55 3.66,1165.55"/>
    </edge>
    <edge id=":47b5c_0" function="internal">
        <lane id=":47b5c_0_0" index="0" allow="rail rail_electric" speed="0.10" length="0.10" shape="907.05,4579.04 907.05,4579.04"/>
    </edge>
    <edge id=":4966c_0" function="internal">
        <lane id=":4966c_0_0" index="0" allow="rail rail_electric" speed="0.10" length="0.10" shape="351.04,4493.13 351.04,4493.13"/>
    </edge>
    <edge id=":4d5ef_0" function="internal" bidi=":4d5ef_3">
        <lane id=":4d5ef_0_0" index="0" allow="rail rail_electric" speed="110.00" length="29.56" shape="6230.69,4692.79 6202.16,4685.05"/>
    </edge>
    <edge id=":4d5ef_1" function="internal" bidi=":4d5ef_2">
        <lane id=":4d5ef_1_0" index="0" allow="rail rail_electric" speed="110.00" length="29.55" shape="6230.69,4692.79 6203.23,4681.85"/>
    </edge>
    <edge id=":4d5ef_2" function="internal" bidi=":4d5ef_1">
        <lane id=":4d5ef_2_0" index="0" allow="rail rail_electric" speed="110.00" length="29.55" shape="6203.23,4681.85 6230.69,4692.79"/>
    </edge>
    <edge id=":4d5ef_3" function="internal" bidi=":4d5ef_0">
        <lane id=":4d5ef_3_0" index="0" allow="rail rail_electric" speed="110.00" length="29.56" shape="6202.16,4685.05 6230.69,4692.79"/>
    </edge>
    <edge id=":4e0c9_0" function="internal" bidi=":4e0c9_3">
        <lane id=":4e0c9_0_0" index="0" allow="rail rail_electric" speed="110.00" length="56.00" shape="2708.99,4997.30 2654.78,4983.26"/>
    </edge>
    <edge id=":4e0c9_1" function="internal" bidi=":4e0c9_2">
        <lane id=":4e0c9_1_0" index="0" allow="rail rail_electric" speed="110.00" length="56.00" shape="2709.72,4994.10 2654.78,4983.26"/>
    </edge>
    <edge id=":4e0c9_2" function="internal" bidi=":4e0c9_1">
        <lane id=":4e0c9_2_0" index="0" allow="rail rail_electric" speed="110.00" length="56.00" shape="2654.78,4983.26 2709.72,4994.10"/>
    </edge>
    <edge id=":4e0c9_3" function="internal" bidi=":4e0c9_0">
        <lane id=":4e0c9_3_0" index="0" allow="rail rail_electric" speed="110.00" length="56.00" shape="2654.78,4983.26 2708.99,4997.30"/>
    </edge>
    <edge id=":517ae_0" function="internal" bidi=":517ae_3">
        <lane id=":517ae_0_0" index="0" allow="rail rail_electric" speed="110.00" length="60.00" shape="2342.32,4904.20 2284.08,4889.79"/>
    </edge>
    <edge id=":517ae_1" function="internal" bidi=":517ae_2">
        <lane id=":517ae_1_0" index="0" allow="rail rail_electric" speed="110.00" length="59.99" shape="2342.32,4904.20 2284.97,4886.60"/>
    </edge>
    <edge id=":517ae_2" function="internal" bidi=":517ae_1">
        <lane id=":517ae_2_0" index="0" allow="rail rail_electric" speed="110.00" length="59.99" shape="2284.97,4886.60 2342.32,4904.20"/>
    </edge>
    <edge id=":517ae_3" function="internal" bidi=":517ae_0">
        <lane id=":517ae_3_0" index="0" allow="rail rail_electric" speed="110.00" length="60.00" shape="2284.08,4889.79 2342.32,4904.20"/>
    </edge>
    <edge id=":51837_0" function="internal">
        <lane id=":51837_0_0" index="0" allow="rail rail_electric" speed="0.10" length="0.10" shape="1036.57,4627.56 1036.57,4627.56"/>
    </edge>
    <edge id=":554a2_0" function="internal" bidi=":554a2_3">
        <lane id=":554a2_0_0" index="0" allow="rail rail_electric" speed="110.00" length="47.49" shape="1320.52,4703.10 1274.88,4690.01"/>
    </edge>
    <edge id=":554a2_1" function="internal" bidi=":554a2_2">
        <lane id=":554a2_1_0" index="0" allow="rail rail_electric" speed="110.00" length="47.49" shape="1321.33,4699.89 1274.88,4690.01"/>
    </edge>
    <edge id=":554a2_2" function="internal" bidi=":554a2_1">
        <lane id=":554a2_2_0" index="0" allow="rail rail_electric" speed="110.00" length="47.49" shape="1274.88,4690.01 1321.33,4699.89"/>
    </edge>
    <edge id=":554a2_3" function="internal" bidi=":554a2_0">
        <lane id=":554a2_3_0" index="0" allow="rail rail_electric" speed="110.00" length="47.49" shape="1274.88,4690.01 1320.52,4703.10"/>
    </edge>
    <edge id=":5556c_0" function="internal" bidi=":5556c_3">
        <lane id=":5556c_0_0" index="0" allow="rail rail_electric" speed="110.00" length="2.97" shape="7356.63,1384.56 7353.67,1384.42"/>
    </edge>
    <edge id=":5556c_1" function="internal" bidi=":5556c_2">
        <lane id=":5556c_1_0" index="0" allow="rail rail_electric" speed="110.00" length="2.97" shape="7356.63,1384.56 7353.67,1384.39"/>
    </edge>
    <edge id=":5556c_2" function="internal" bidi=":5556c_1">
        <lane id=":5556c_2_0" index="0" allow="rail rail_electric" speed="110.00" length="2.97" shape="7353.67,1384.39 7356.63,1384.56"/>
    </edge>
    <edge id=":5556c_3" function="internal" bidi=":5556c_0">
        <lane id=":5556c_3_0" index="0" allow="rail rail_electric" speed="110.00" length="2.97" shape="7353.67,1384.42 7356.63,1384.56"/>
    </edge>
    <edge id=":5861e_0" function="internal" bidi=":5861e_3">
        <lane id=":5861e_0_0" index="0" allow="rail rail_electric" speed="110.00" length="60.20" shape="2128.90,1330.13 2068.71,1329.12"/>
    </edge>
    <edge id=":5861e_1" function="internal" bidi=":5861e_2">
        <lane id=":5861e_1_0" index="0" allow="rail rail_electric" speed="110.00" length="60.20" shape="2128.90,1330.13 2068.86,1325.84"/>
    </edge>
    <edge id=":5861e_2" function="internal" bidi=":5861e_1">
        <lane id=":5861e_2_0" index="0" allow="rail rail_electric" speed="110.00" length="60.20" shape="2068.86,1325.84 2128.90,1330.13"/>
    </edge>
    <edge id=":5861e_3" function="internal" bidi=":5861e_0">
        <lane id=":5861e_3_0" index="0" allow="rail rail_electric" speed="110.00" length="60.20" shape="2068.71,1329.12 2128.90,1330.13"/>
    </edge>
    <edge id=":5c8a7_0" function="internal" bidi=":5c8a7_3">
        <lane id=":5c8a7_0_0" index="0" allow="rail rail_electric" speed="110.00" length="51.03" shape="1116.78,4655.99 1066.25,4648.85"/>
    </edge>
    <edge id=":5c8a7_1" function="internal" bidi=":5c8a7_2">
        <lane id=":5c8a7_1_0" index="0" allow="rail rail_electric" speed="110.00" length="51.03" shape="1116.78,4655.99 1066.82,4645.60"/>
    </edge>
    <edge id=":5c8a7_2" function="internal" bidi=":5c8a7_1">
        <lane id=":5c8a7_2_0" index="0" allow="rail rail_electric" speed="110.00" length="51.03" shape="1066.82,4645.60 1116.78,4655.99"/>
    </edge>
    <edge id=":5c8a7_3" function="internal" bidi=":5c8a7_0">
        <lane id=":5c8a7_3_0" index="0" allow="rail rail_electric" speed="110.00" length="51.03" shape="1066.25,4648.85 1116.78,4655.99"/>
    </edge>
    <edge id=":5dd9f_0" function="internal">
        <lane id=":5dd9f_0_0" index="0" allow="rail rail_electric" speed="0.10" length="0.10" shape="986.34,4603.70 986.34,4603.70"/>
    </edge>
    <edge id=":5e60b_0" function="internal" bidi=":5e60b_3">
        <lane id=":5e60b_0_0" index="0" allow="rail rail_electric" speed="110.00" length="42.90" shape="1518.98,5140.54 1513.65,5146.65 1505.07,5156.87 1496.61,5167.20 1491.67,5173.62"/>
    </edge>
    <edge id=":5e60b_1" function="internal" bidi=":5e60b_2">
        <lane id=":5e60b_1_0" index="0" allow="rail rail_electric" speed="110.00" length="42.90" shape="1516.26,5138.47 1491.67,5173.62"/>
    </edge>
    <edge id=":5e60b_2" function="internal" bidi=":5e60b_1">
        <lane id=":5e60b_2_0" index="0" allow="rail rail_electric" speed="110.00" length="42.90" shape="1491.67,5173.62 1516.26,5138.47"/>
    </edge>
    <edge id=":5e60b_3" function="internal" bidi=":5e60b_0">
        <lane id=":5e60b_3_0" index="0" allow="rail rail_electric" speed="110.00" length="42.90" shape="1491.67,5173.62 1496.61,5167.20 1505.07,5156.87 1513.65,5146.65 1518.98,5140.54"/>
    </edge>
    <edge id=":69cf1_0" function="internal" bidi=":69cf1_3">
        <lane id=":69cf1_0_0" index="0" allow="rail rail_electric" speed="110.00" length="52.19" shape="801.52,4581.12 750.50,4570.12"/>
    </edge>
    <edge id=":69cf1_1" function="internal" bidi=":69cf1_2">
        <lane id=":69cf1_1_0" index="0" allow="rail rail_electric" speed="110.00" length="52.19" shape="801.52,4581.12 751.30,4566.92"/>
    </edge>
    <edge id=":69cf1_2" function="internal" bidi=":69cf1_1">
        <lane id=":69cf1_2_0" index="0" allow="rail rail_electric" speed="110.00" length="52.19" shape="751.30,4566.92 801.52,4581.12"/>
    </edge>
    <edge id=":69cf1_3" function="internal" bidi=":69cf1_0">
        <lane id=":69cf1_3_0" index="0" allow="rail rail_electric" speed="110.00" length="52.19" shape="750.50,4570.12 801.52,4581.12"/>
    </edge>
    <edge id=":76c61_0" function="internal" bidi=":76c61_2">
        <lane id=":76c61_0_0" index="0" allow="rail rail_electric" speed="110.00" length="2.97" shape="4070.14,1208.61 4067.17,1208.42"/>
    </edge>
    <edge id=":76c61_1" function="internal" bidi=":76c61_3">
        <lane id=":76c61_1_0" index="0" allow="rail rail_electric" speed="110.00" length="3.02" shape="4067.17,1208.42 4070.18,1208.57"/>
    </edge>
    <edge id=":76c61_2" function="internal" bidi=":76c61_0">
        <lane id=":76c61_2_0" index="0" allow="rail rail_electric" speed="110.00" length="2.97" shape="4067.17,1208.42 4070.14,1208.61"/>
    </edge>
    <edge id=":76c61_3" function="internal" bidi=":76c61_1">
        <lane id=":76c61_3_0" index="0" allow="rail rail_electric" speed="110.00" length="3.02" shape="4070.18,1208.57 4067.17,1208.42"/>
    </edge>
    <edge id=":76f73_0" function="internal">
        <lane id=":76f73_0_0" index="0" allow="rail rail_electric" speed="0.10" length="0.10" shape="1659.48,1263.37 1659.48,1263.37"/>
    </edge>
    <edge id=":77c11_0" function="internal" bidi=":77c11_3">
        <lane id=":77c11_0_0" index="0" allow="rail rail_electric" speed="110.00" length="58.72" shape="7508.58,1399.52 7449.94,1396.45"/>
    </edge>
    <edge id=":77c11_1" function="internal" bidi=":77c11_2">
        <lane id=":77c11_1_0" index="0" allow="rail rail_electric" speed="110.00" length="58.71" shape="7508.58,1399.52 7450.21,1393.17"/>
    </edge>
    <edge id=":77c11_2" function="internal" bidi=":77c11_1">
        <lane id=":77c11_2_0" index="0" allow="rail rail_electric" speed="110.00" length="58.71" shape="7450.21,1393.17 7508.58,1399.52"/>
    </edge>
    <edge id=":77c11_3" function="internal" bidi=":77c11_0">
        <lane id=":77c11_3_0" index="0" allow="rail rail_electric" speed="110.00" length="58.72" shape="7449.94,1396.45 7508.58,1399.52"/>
    </edge>
    <edge id=":787a2_0" function="internal">
        <lane id=":787a2_0_0" index="0" allow="rail rail_electric" speed="0.10" length="0.10" shape="562.81,4554.35 562.81,4554.35"/>
    </edge>
    <edge id=":79b9e_0" function="internal" bidi=":79b9e_3">
        <lane id=":79b9e_0_0" index="0" allow="rail rail_electric" speed="110.00" length="20.22" shape="1381.01,2077.40 1379.25,2081.58 1377.57,2086.87 1376.06,2092.22 1374.80,2096.62"/>
    </edge>
    <edge id=":79b9e_1" function="internal" bidi=":79b9e_2">
        <lane id=":79b9e_1_0" index="0" allow="rail rail_electric" speed="110.00" length="20.23" shape="1381.01,2077.40 1371.60,2095.30"/>
    </edge>
    <edge id=":79b9e_2" function="internal" bidi=":79b9e_1">
        <lane id=":79b9e_2_0" index="0" allow="rail rail_electric" speed="110.00" length="20.23" shape="1371.60,2095.30 1381.01,2077.40"/>
    </edge>
    <edge id=":79b9e_3" function="internal" bidi=":79b9e_0">
        <lane id=":79b9e_3_0" index="0" allow="rail rail_electric" speed="110.00" length="20.22" shape="1374.80,2096.62 1376.06,2092.22 1377.57,2086.87 1379.25,2081.58 1381.01,2077.40"/>
    </edge>
    <edge id=":79c7e_0" function="internal">
        <lane id=":79c7e_0_0" index="0" allow="rail rail_electric" speed="0.10" length="0.10" shape="920.91,4583.05 920.91,4583.05"/>
    </edge>
    <edge id=":81889_0" function="internal" bidi=":81889_3">
        <lane id=":81889_0_0" index="0" allow="rail rail_electric" speed="110.00" length="46.66" shape="861.12,1229.05 814.46,1228.90"/>
    </edge>
    <edge id=":81889_1" function="internal" bidi=":81889_2">
        <lane id=":81889_1_0" index="0" allow="rail rail_electric" speed="110.00" length="46.66" shape="861.12,1229.05 814.58,1225.59"/>
    </edge>
    <edge id=":81889_2" function="internal" bidi=":81889_1">
        <lane id=":81889_2_0" index="0" allow="rail rail_electric" speed="110.00" length="46.66" shape="814.58,1225.59 861.12,1229.05"/>
    </edge>
    <edge id=":81889_3" function="internal" bidi=":81889_0">
        <lane id=":81889_3_0" index="0" allow="rail rail_electric" speed="110.00" length="46.66" shape="814.46,1228.90 861.12,1229.05"/>
    </edge>
    <edge id=":81ca9_0" function="internal">
        <lane id=":81ca9_0_0" index="0" allow="rail rail_electric" speed="0.10" length="0.10" shape="1468.22,5419.60 1468.22,5419.60"/>
    </edge>
    <edge id=":87a9a_0" function="internal">
        <lane id=":87a9a_0_0" index="0" allow="rail rail_electric" speed="0.10" length="0.10" shape="12620.06,1236.25 12620.06,1236.25"/>
    </edge>
    <edge id=":8f19d_0" function="internal">
        <lane id=":8f19d_0_0" index="0" allow="rail rail_electric" speed="0.10" length="0.10" shape="12702.20,1229.51 12702.20,1229.51"/>
    </edge>
    <edge id=":96aeb_0" function="internal" bidi=":96aeb_3">
        <lane id=":96aeb_0_0" index="0" allow="rail rail_electric" speed="110.00" length="71.22" shape="1387.25,4677.85 1317.09,4665.54"/>
    </edge>
    <edge id=":96aeb_1" function="internal" bidi=":96aeb_2">