<edges>
<!-- Track 17de9032-4064-4d67-838f-701fb8b063c4 -->
<edge id="063c4-0" from="175c5" to="aebe0" shape="-2512719.9413900003,3471469.6516299993 -2513429.23883,3472874.94778 -2513417.24437,3472908.989119999 -2513396.88767,3472959.204 -2513360.2216,3473012.89174 -2513313.5568899997,3473056.2506300006 -2513265.70366,3473085.9179500006 -2513210.53725,3473114.1483500004 -2513160.36749,3473131.14154 -2513106.50734,3473145.0811800007 -2512992.65068,3473172.8707599994" priority="-1" numLanes="1" speed="110.0" allow="rail rail_electric" spreadType="center" />
<edge id="063c4-0-re" from="aebe0" to="175c5" shape="-2512992.65068,3473172.8707599994 -2513106.50734,3473145.0811800007 -2513160.36749,3473131.14154 -2513210.53725,3473114.1483500004 -2513265.70366,3473085.9179500006 -2513313.5568899997,3473056.2506300006 -2513360.2216,3473012.89174 -2513396.88767,3472959.204 -2513417.24437,3472908.989119999 -2513429.23883,3472874.94778 -2512719.9413900003,3471469.6516299993" priority="-1" numLanes="1" speed="110.0" allow="rail rail_electric" spreadType="center" />
<!-- Track aca9a47e-21c3-49de-a078-c7f87e45287d -->
<edge id="5287d-0" from="175c5" to="c3dc2" shape="-2512719.9413900003,3471469.6516299993 -2512668.94491,3471373.3336500004 -2512631.84583,3471319.5048900004 -2512602.4524,3471281.73302 -2512568.8621300003,3471244.3804 -2512524.66786,3471201.93276 -2512474.8555199997,3471159.68423 -2512423.51231,3471120.9928600006 -2512364.7188999997,3471082.6732 -2512319.54298,3471055.4617500007 -2512273.80645,3471030.715500001 -2512218.6141600003,3471003.98247 -2512155.8133300003,3470976.4248099998 -2512099.2408499997,3470955.04569 -2512038.6921300003,3470933.70964 -2511975.40822,3470914.7870700005 -2511908.35121,3470897.9398 -2511858.4965500003,3470886.8200700004 -2511804.93739,3470877.4392099995 -2511756.7413999997,3470869.6720400006 -2511678.62223,3470859.761430001 -2511649.1096200002,3470856.94489 -2511582.0067100003,3470850.531060001 -2511285.60505,3470823.4017399997 -2510572.7165099997,3470753.9709099997 -2510515.83467,3470749.3856000006 -2510456.49805,3470746.4013 -2510403.2063800003,3470745.7735200003 -2510348.3346800003,3470746.827369999 -2510029.5778799998,3470763.58399" priority="-1" numLanes="1" speed="110.0" allow="rail rail_electric" spreadType="center" />
<edge id="5287d-0-re" from="c3dc2" to="175c5" shape="-2510029.5778799998,3470763.58399 -2510348.3346800003,3470746.827369999 -2510403.2063800003,3470745.7735200003 -2510456.49805,3470746.4013 -2510515.83467,3470749.3856000006 -2510572.7165099997,3470753.9709099997 -2511285.60505,3470823.4017399997 -2511582.0067100003,3470850.531060001 -2511649.1096200002,3470856.94489 -2511678.62223,3470859.761430001 -2511756.7413999997,3470869.6720400006 -2511804.93739,3470877.4392099995 -2511858.4965500003,3470886.8200700004 -2511908.35121,3470897.9398 -2511975.40822,3470914.7870700005 -2512038.6921300003,3470933.70964 -2512099.2408499997,3470955.04569 -2512155.8133300003,3470976.4248099998 -2512218.6141600003,3471003.98247 -2512273.80645,3471030.715500001 -2512319.54298,3471055.4617500007 -2512364.7188999997,3471082.6732 -2512423.51231,3471120.9928600006 -2512474.8555199997,3471159.68423 -2512524.66786,3471201.93276 -2512568.8621300003,3471244.3804 -2512602.4524,3471281.73302 -2512631.84583,3471319.5048900004 -2512668.94491,3471373.3336500004 -2512719.9413900003,3471469.6516299993" priority="-1" numLanes="1" speed="110.0" allow="rail rail_electric" spreadType="center" />
<!-- Track 07ff82f2-ca00-4221-8fd3-39288310b456 -->
<edge id="0b456-0" from="175c5" to="10896" shape="-2512719.9413900003,3471469.6516299993 -2512768.74002,3471527.0189699996 -2512821.4352599997,3471577.6242500003 -2512856.9625500003,3471618.9483899996 -2512888.4259599997,3471670.5341999996" priority="-1" numLanes="1" speed="110.0" allow="rail rail_electric" spreadType="center" />
<edge id="0b456-0-re" from="10896" to="175c5" shape="-2512888.4259599997,3471670.5341999996 -2512856.9625500003,3471618.9483899996 -2512821.4352599997,3471577.6242500003 -2512768.74002,3471527.0189699996 -2512719.9413900003,3471469.6516299993" priority="-1" numLanes="1" speed="110.0" allow="rail rail_electric" spreadType="center" />
<!-- Track e0c9802c-23fc-428f-881e-7ead665fde02 -->
<edge id="fde02-0" from="111fb" to="ebc35" shape="-2510240.96626,3474720.4712499995 -2510380.07847,3474709.5058900006 -2510554.9892800003,3474693.8097699992 -2510668.8413199997,3474682.0230899993 -2510785.48821,3474668.02922 -2510946.3990700003,3474647.9204600006 -2511106.23869,3474624.1815600004 -2511166.78805,3474615.22449 -2511224.4099000003,3474604.3362000007 -2511260.04342,3474596.751839999 -2511339.75579,3474574.8090400007 -2511391.3338,3474562.950959999" priority="-1" numLanes="1" speed="110.0" allow="rail rail_electric" spreadType="center" />
<edge id="fde02-0-re" from="ebc35" to="111fb" shape="-2511391.3338,3474562.950959999 -2511339.75579,3474574.8090400007 -2511260.04342,3474596.751839999 -2511224.4099000003,3474604.3362000007 -2511166.78805,3474615.22449 -2511106.23869,3474624.1815600004 -2510946.3990700003,3474647.9204600006 -2510785.48821,3474668.02922 -2510668.8413199997,3474682.0230899993 -2510554.9892800003,3474693.8097699992 -2510380.07847,3474709.5058900006 -2510240.96626,3474720.4712499995" priority="-1" numLanes="1" speed="110.0" allow="rail rail_electric" spreadType="center" />
<!-- Track 7560d64c-aaa8-400f-be39-8fc091244878 -->
<edge id="44878-0" from="ebc35" to="dcdc5" shape="-2511391.3338,3474562.950959999 -2511455.33109,3474550.8395099994" priority="-1" numLanes="1" speed="110.0" allow="rail rail_electric" spreadType="center" />
<edge id="44878-0-re" from="dcdc5" to="ebc35" shape="-2511455.33109,3474550.8395099994 -2511391.3338,3474562.950959999" priority="-1" numLanes="1" speed="110.0" allow="rail rail_electric" spreadType="center" />
<!-- Track e560f144-a236-4828-b6a1-8924152dd5d7 -->
<edge id="dd5d7-0" from="ebc35" to="a2263" shape="-2511391.3338,3474562.950959999 -2511099.71072,3474612.2155399993 -2510941.22369,3474635.5295199994 -2510781.72645,3474655.6887299996 -2510666.1920600003,3474669.44716 -2510552.2791999998,3474680.8286300004 -2510367.64661,3474697.7206200007 -2510299.04979,3474702.97886 -2510234.64088,3474708.6441900004 -2510199.1652699998,3474714.2510899995 -2510171.1817699997,3474719.861230001 -2510142.63943,3474728.4146500006 -2510120.36376,3474737.4080599993 -2510074.28487,3474759.0657100007 -2510043.0090300003,3474782.7409000006 -2510019.9958699998,3474807.2223300003 -2510007.87933,3474822.445080001" priority="-1" numLanes="1" speed="110.0" allow="rail rail_electric" spreadType="center" />
<edge id="dd5d7-0-re" from="a2263" to="ebc35" shape="-2510007.87933,3474822.445080001 -2510019.9958699998,3474807.2223300003 -2510043.0090300003,3474782.7409000006 -2510074.28487,3474759.0657100007 -2510120.36376,3474737.4080599993 -2510142.63943,3474728.4146500006 -2510171.1817699997,3474719.861230001 -2510199.1652699998,3474714.2510899995 -2510234.64088,3474708.6441900004 -2510299.04979,3474702.97886 -2510367.64661,3474697.7206200007 -2510552.2791999998,3474680.8286300004 -2510666.1920600003,3474669.44716 -2510781.72645,3474655.6887299996 -2510941.22369,3474635.5295199994 -2511099.71072,3474612.2155399993 -2511391.3338,3474562.950959999" priority="-1" numLanes="1" speed="110.0" allow="rail rail_electric" spreadType="center" />
<!-- Track d2c4115a-ebbf-467d-897a-8de74d2b40f2 -->
<edge id="b40f2-0" from="aba4c" to="f2928" shape="-2510245.66299,3474727.392790001 -2510557.08894,3474701.4063600004 -2510670.6982899997,3474689.89264 -2510786.43409,3474675.572210001 -2510947.5714100003,3474655.41154 -2511107.13803,3474631.9534300007 -2511218.92008,3474614.23852 -2511312.70786,3474599.56295 -2511356.43195,3474591.3034700006 -2511393.39168,3474581.5210599992" priority="-1" numLanes="1" speed="110.0" allow="rail rail_electric" spreadType="center" />
<edge id="b40f2-0-re" from="f2928" to="aba4c" shape="-2511393.39168,3474581.5210599992 -2511356.43195,3474591.3034700006 -2511312.70786,3474599.56295 -2511218.92008,3474614.23852 -2511107.13803,3474631.9534300007 -2510947.5714100003,3474655.41154 -2510786.43409,3474675.572210001 -2510670.6982899997,3474689.89264 -2510557.08894,3474701.4063600004 -2510245.66299,3474727.392790001" priority="-1" numLanes="1" speed="110.0" allow="rail rail_electric" spreadType="center" />
<!-- Track cb553e00-f679-47c6-a9ef-caeb42006a33 -->
<edge id="06a33-0" from="f2928" to="3f04a" shape="-2511393.39168,3474581.5210599992 -2511302.4917099997,3474608.878040001" priority="-1" numLanes="1" speed="110.0" allow="rail rail_electric" spreadType="center" />
<edge id="06a33-0-re" from="3f04a" to="f2928" shape="-2511302.4917099997,3474608.878040001 -2511393.39168,3474581.5210599992" priority="-1" numLanes="1" speed="110.0" allow="rail rail_electric" spreadType="center" />
<!-- Track 8ebb3407-cbcd-43e3-832f-051c044a5099 -->
<edge id="a5099-0" from="f2928" to="4e0c9" shape="-2511393.39168,3474581.5210599992 -2511538.7755899997,3474538.0732400008 -2511596.43518,3474523.0526800007" priority="-1" numLanes="1" speed="110.0" allow="rail rail_electric" spreadType="center" />
<edge id="a5099-0-re" from="4e0c9" to="f2928" shape="-2511596.43518,3474523.0526800007 -2511538.7755899997,3474538.0732400008 -2511393.39168,3474581.5210599992" priority="-1" numLanes="1" speed="110.0" allow="rail rail_electric" spreadType="center" />
<!-- Track 1eb3345d-6cb5-4588-9356-233be6726230 -->
<edge id="26230-0" from="9e8c8" to="3f04a" shape="-2510252.2347,3474745.3996099997 -2510325.40438,3474742.0446499996 -2510393.0627699997,3474736.5943100005 -2510564.7361500002,3474721.3300199993 -2510678.06122,3474709.51963 -2510792.97494,3474695.77441 -2510955.32961,3474675.0068800002 -2511115.34409,3474652.1030100007 -2511171.48506,3474643.1845500004 -2511230.77015,3474629.9291399997 -2511302.4917099997,3474608.878040001" priority="-1" numLanes="1" speed="110.0" allow="rail rail_electric" spreadType="center" />
<edge id="26230-0-re" from="3f04a" to="9e8c8" shape="-2511302.4917099997,3474608.878040001 -2511230.77015,3474629.9291399997 -2511171.48506,3474643.1845500004 -2511115.34409,3474652.1030100007 -2510955.32961,3474675.0068800002 -2510792.97494,3474695.77441 -2510678.06122,3474709.51963 -2510564.7361500002,3474721.3300199993 -2510393.0627699997,3474736.5943100005 -2510325.40438,3474742.0446499996 -2510252.2347,3474745.3996099997" priority="-1" numLanes="1" speed="110.0" allow="rail rail_electric" spreadType="center" />
<!-- Track c5479655-4a88-4262-a8fa-495e18e58442 -->
<edge id="58442-0" from="3f04a" to="dcf57" shape="-2511302.4917099997,3474608.878040001 -2511223.59338,3474626.62486 -2511166.51722,3474636.3202899992 -2511112.04596,3474644.528069999 -2510952.58936,3474667.6581200007 -2510790.2212199997,3474688.7734900005 -2510674.54274,3474702.2501100004 -2510561.4801700003,3474714.3245100006 -2510389.28241,3474729.62177 -2510302.36732,3474736.7586199995 -2510248.44709,3474740.1507399995" priority="-1" numLanes="1" speed="110.0" allow="rail rail_electric" spreadType="center" />
<edge id="58442-0-re" from="dcf57" to="3f04a" shape="-2510248.44709,3474740.1507399995 -2510302.36732,3474736.7586199995 -2510389.28241,3474729.62177 -2510561.4801700003,3474714.3245100006 -2510674.54274,3474702.2501100004 -2510790.2212199997,3474688.7734900005 -2510952.58936,3474667.6581200007 -2511112.04596,3474644.528069999 -2511166.51722,3474636.3202899992 -2511223.59338,3474626.62486 -2511302.4917099997,3474608.878040001" priority="-1" numLanes="1" speed="110.0" allow="rail rail_electric" spreadType="center" />
<!-- Track 9d25ecb9-0e6a-43f7-bd77-86a88cfa71ae -->
<edge id="a71ae-0" from="4e0c9" to="38949" shape="-2511596.43518,3474523.0526800007 -2511637.35375,3474514.37283" priority="-1" numLanes="1" speed="110.0" allow="rail rail_electric" spreadType="center" />
<edge id="a71ae-0-re" from="38949" to="4e0c9" shape="-2511637.35375,3474514.37283 -2511596.43518,3474523.0526800007" priority="-1" numLanes="1" speed="110.0" allow="rail rail_electric" spreadType="center" />
<!-- Track 7925be9a-4a23-481a-a7ac-49f9c004b616 -->
<edge id="4b616-0" from="4e0c9" to="dcdc5" shape="-2511596.43518,3474523.0526800007 -2511455.33109,3474550.8395099994" priority="-1" numLanes="1" speed="110.0" allow="rail rail_electric" spreadType="center" />
<edge id="4b616-0-re" from="dcdc5" to="4e0c9" shape="-2511455.33109,3474550.8395099994 -2511596.43518,3474523.0526800007" priority="-1" numLanes="1" speed="110.0" allow="rail rail_electric" spreadType="center" />
<!-- Track 10ae3d1c-7183-499e-94ec-1ae3014df633 -->
<edge id="df633-0" from="38949" to="395c7" shape="-2511637.35375,3474514.37283 -2511945.9010699997,3474449.094970001" priority="-1" numLanes="1" speed="110.0" allow="rail rail_electric" spreadType="center" />
<edge id="df633-0-re" from="395c7" to="38949" shape="-2511945.9010699997,3474449.094970001 -2511637.35375,3474514.37283" priority="-1" numLanes="1" speed="110.0" allow="rail rail_electric" spreadType="center" />
<!-- Track b2e36496-3361-49c1-b77b-73427b035748 -->
<edge id="35748-0" from="38949" to="9e734" shape="-2511637.35375,3474514.37283 -2511719.04306,3474491.1897100005 -2511763.24989,3474479.646709999" priority="-1" numLanes="1" speed="110.0" allow="rail rail_electric" spreadType="center" />
<edge id="35748-0-re" from="9e734" to="38949" shape="-2511763.24989,3474479.646709999 -2511719.04306,3474491.1897100005 -2511637.35375,3474514.37283" priority="-1" numLanes="1" speed="110.0" allow="rail rail_electric" spreadType="center" />
<!-- Track 71f10ffe-d844-40a4-82e3-1868ed944135 -->
<edge id="44135-0" from="395c7" to="554a2" shape="-2511945.9010699997,3474449.094970001 -2512976.32198,3474229.8106699996" priority="-1" numLanes="1" speed="110.0" allow="rail rail_electric" spreadType="center" />
<edge id="44135-0-re" from="554a2" to="395c7" shape="-2512976.32198,3474229.8106699996 -2511945.9010699997,3474449.094970001" priority="-1" numLanes="1" speed="110.0" allow="rail rail_electric" spreadType="center" />
<!-- Track e7fd1847-7d50-4ab2-9720-d66183bec233 -->
<edge id="ec233-0" from="395c7" to="5e60b" shape="-2511945.9010699997,3474449.094970001 -2512040.42455,3474436.0769999996 -2512089.30004,3474433.7754500005 -2512137.53708,3474434.17643 -2512186.04089,3474436.9318700004 -2512233.9864,3474442.4202500004 -2512292.1130299997,3474452.06394 -2512347.94823,3474464.89996 -2512409.0215600003,3474483.0694900006 -2512463.4260299997,3474501.6437999997 -2512514.5069500003,3474523.67667 -2512558.04879,3474545.305609999 -2512609.79702,3474576.46511 -2512654.82926,3474607.7676100004 -2512686.18132,3474633.1061499994 -2512712.9037800003,3474658.0882600006 -2512737.02624,3474683.47913 -2512760.18215,3474711.772430001" priority="-1" numLanes="1" speed="110.0" allow="rail rail_electric" spreadType="center" />
<edge id="ec233-0-re" from="5e60b" to="395c7" shape="-2512760.18215,3474711.772430001 -2512737.02624,3474683.47913 -2512712.9037800003,3474658.0882600006 -2512686.18132,3474633.1061499994 -2512654.82926,3474607.7676100004 -2512609.79702,3474576.46511 -2512558.04879,3474545.305609999 -2512514.5069500003,3474523.67667 -2512463.4260299997,3474501.6437999997 -2512409.0215600003,3474483.0694900006 -2512347.94823,3474464.89996 -2512292.1130299997,3474452.06394 -2512233.9864,3474442.4202500004 -2512186.04089,3474436.9318700004 -2512137.53708,3474434.17643 -2512089.30004,3474433.7754500005 -2512040.42455,3474436.0769999996 -2511945.9010699997,3474449.094970001" priority="-1" numLanes="1" speed="110.0" allow="rail rail_electric" spreadType="center" />
<!-- Track 3d8ef3b0-cce4-41db-aa1b-04978a5cb705 -->
<edge id="cb705-0" from="554a2" to="5e60b" shape="-2512976.32198,3474229.8106699996 -2512909.82515,3474249.0523300003 -2512880.1486,3474260.3000000007 -2512850.9287900003,3474273.1836699992 -2512820.24091,3474290.1575000007 -2512789.9258399997,3474310.86809 -2512758.65416,3474336.7551099993 -2512731.31942,3474366.952540001 -2512710.82228,3474397.2559900004 -2512695.4802,3474429.2855399996 -2512684.51525,3474463.68183 -2512679.49507,3474496.5011599995 -2512679.7790900003,3474527.5005099997 -2512682.8266700003,3474555.3895500004 -2512691.5522499997,3474589.768239999 -2512703.35544,3474620.1329299994 -2512732.09486,3474671.713850001 -2512760.18215,3474711.772430001" priority="-1" numLanes="1" speed="110.0" allow="rail rail_electric" spreadType="center" />
<edge id="cb705-0-re" from="5e60b" to="554a2" shape="-2512760.18215,3474711.772430001 -2512732.09486,3474671.713850001 -2512703.35544,3474620.1329299994 -2512691.5522499997,3474589.768239999 -2512682.8266700003,3474555.3895500004 -2512679.7790900003,3474527.5005099997 -2512679.49507,3474496.5011599995 -2512684.51525,3474463.68183 -2512695.4802,3474429.2855399996 -2512710.82228,3474397.2559900004 -2512731.31942,3474366.952540001 -2512758.65416,3474336.7551099993 -2512789.9258399997,3474310.86809 -2512820.24091,3474290.1575000007 -2512850.9287900003,3474273.1836699992 -2512880.1486,3474260.3000000007 -2512909.82515,3474249.0523300003 -2512976.32198,3474229.8106699996" priority="-1" numLanes="1" speed="110.0" allow="rail rail_electric" spreadType="center" />
<!-- Track a3a1b060-887c-459a-a498-a910718e1a25 -->
<edge id="e1a25-0" from="23182" to="c2a1c" shape="-2511636.26082,3474506.70177 -2511710.44814,3474485.11352 -2511741.74617,3474472.5598799996 -2511775.6977,3474457.1540900003 -2511818.85538,3474441.8058700003" priority="-1" numLanes="1" speed="110.0" allow="rail rail_electric" spreadType="center" />
<edge id="e1a25-0-re" from="c2a1c" to="23182" shape="-2511818.85538,3474441.8058700003 -2511775.6977,3474457.1540900003 -2511741.74617,3474472.5598799996 -2511710.44814,3474485.11352 -2511636.26082,3474506.70177" priority="-1" numLanes="1" speed="110.0" allow="rail rail_electric" spreadType="center" />
<!-- Track 21134d9b-051e-488f-957e-c41a2296335c -->
<edge id="6335c-0" from="23182" to="0df18" shape="-2511636.26082,3474506.70177 -2511590.53712,3474516.6578400005" priority="-1" numLanes="1" speed="110.0" allow="rail rail_electric" spreadType="center" />
<edge id="6335c-0-re" from="0df18" to="23182" shape="-2511590.53712,3474516.6578400005 -2511636.26082,3474506.70177" priority="-1" numLanes="1" speed="110.0" allow="rail rail_electric" spreadType="center" />
<!-- Track a51ba131-c193-4787-92b4-5c9c612a1ea5 -->
<edge id="a1ea5-0" from="23182" to="9e734" shape="-2511636.26082,3474506.70177 -2511763.24989,3474479.646709999" priority="-1" numLanes="1" speed="110.0" allow="rail rail_electric" spreadType="center" />
<edge id="a1ea5-0-re" from="9e734" to="23182" shape="-2511763.24989,3474479.646709999 -2511636.26082,3474506.70177" priority="-1" numLanes="1" speed="110.0" allow="rail rail_electric" spreadType="center" />
<!-- Track d182d614-2e8d-4b09-b77f-ee018a8ff3ab -->
<edge id="ff3ab-0" from="c2a1c" to="96aeb" shape="-2511818.85538,3474441.8058700003 -2512679.46445,3474256.8222700004 -2512872.24773,3474215.8945199996 -2512934.11673,3474205.2315800004" priority="-1" numLanes="1" speed="110.0" allow="rail rail_electric" spreadType="center" />
<edge id="ff3ab-0-re" from="96aeb" to="c2a1c" shape="-2512934.11673,3474205.2315800004 -2512872.24773,3474215.8945199996 -2512679.46445,3474256.8222700004 -2511818.85538,3474441.8058700003" priority="-1" numLanes="1" speed="110.0" allow="rail rail_electric" spreadType="center" />
<!-- Track d0788a1b-6ca0-4c15-bde3-323192e320e5 -->
<edge id="320e5-0" from="96aeb" to="5dd9f" shape="-2512934.11673,3474205.2315800004 -2513072.68783,3474185.979289999 -2513177.05203,3474164.31336 -2513221.17771,3474155.117110001 -2513266.38028,3474143.181120001" priority="-1" numLanes="1" speed="110.0" allow="rail rail_electric" spreadType="center" />
<edge id="320e5-0-re" from="5dd9f" to="96aeb" shape="-2513266.38028,3474143.181120001 -2513221.17771,3474155.117110001 -2513177.05203,3474164.31336 -2513072.68783,3474185.979289999 -2512934.11673,3474205.2315800004" priority="-1" numLanes="1" speed="110.0" allow="rail rail_electric" spreadType="center" />
<!-- Track 723fff53-b579-41ed-a033-99cde04f9138 -->
<edge id="f9138-0" from="aa78d" to="5e60b" shape="-2512818.2885100003,3474929.6044200007 -2512823.08655,3474874.0009400006 -2512820.85445,3474851.2007800005 -2512814.90263,3474823.44709 -2512807.04239,3474798.0669400003 -2512788.5590399997,3474754.7797100004 -2512760.18215,3474711.772430001" priority="-1" numLanes="1" speed="110.0" allow="rail rail_electric" spreadType="center" />
<edge id="f9138-0-re" from="5e60b" to="aa78d" shape="-2512760.18215,3474711.772430001 -2512788.5590399997,3474754.7797100004 -2512807.04239,3474798.0669400003 -2512814.90263,3474823.44709 -2512820.85445,3474851.2007800005 -2512823.08655,3474874.0009400006 -2512818.2885100003,3474929.6044200007" priority="-1" numLanes="1" speed="110.0" allow="rail rail_electric" spreadType="center" />
<!-- Track f860910d-6c77-4903-b5e5-7365638dae0c -->
<edge id="dae0c-0" from="c3dc2" to="d1d00" shape="-2510029.5778799998,3470763.58399 -2510011.46233,3470764.3675500005" priority="-1" numLanes="1" speed="110.0" allow="rail rail_electric" spreadType="center" />
<edge id="dae0c-0-re" from="d1d00" to="c3dc2" shape="-2510011.46233,3470764.3675500005 -2510029.5778799998,3470763.58399" priority="-1" numLanes="1" speed="110.0" allow="rail rail_electric" spreadType="center" />
<!-- Track 5f3a567f-447a-4900-ae7a-58e2e6a9ebe7 -->
<edge id="9ebe7-0" from="c3dc2" to="76c61" shape="-2510029.5778799998,3470763.58399 -2510132.71748,3470752.3630999997 -2510184.0465599997,3470747.9648100007" priority="-1" numLanes="1" speed="110.0" allow="rail rail_electric" spreadType="center" />
<edge id="9ebe7-0-re" from="76c61" to="c3dc2" shape="-2510184.0465599997,3470747.9648100007 -2510132.71748,3470752.3630999997 -2510029.5778799998,3470763.58399" priority="-1" numLanes="1" speed="110.0" allow="rail rail_electric" spreadType="center" />
<!-- Track cb6b5fc8-ea7c-40e0-b6cd-a8b4722178b4 -->
<edge id="178b4-0" from="d1d00" to="eb3ea" shape="-2510011.46233,3470764.3675500005 -2508045.77752,3470869.8737000003 -2507252.23463,3470912.0440999996 -2507130.64964,3470918.57271 -2507071.66039,3470921.66581" priority="-1" numLanes="1" speed="110.0" allow="rail rail_electric" spreadType="center" />
<edge id="178b4-0-re" from="eb3ea" to="d1d00" shape="-2507071.66039,3470921.66581 -2507130.64964,3470918.57271 -2507252.23463,3470912.0440999996 -2508045.77752,3470869.8737000003 -2510011.46233,3470764.3675500005" priority="-1" numLanes="1" speed="110.0" allow="rail rail_electric" spreadType="center" />
<!-- Track 9aa8824d-9d57-4c08-95b8-d495e9761a74 -->
<edge id="61a74-0" from="d1d00" to="ae7e1" shape="-2510011.46233,3470764.3675500005 -2509912.2970000003,3470764.0199100003 -2509861.90106,3470765.04638" priority="-1" numLanes="1" speed="110.0" allow="rail rail_electric" spreadType="center" />
<edge id="61a74-0-re" from="ae7e1" to="d1d00" shape="-2509861.90106,3470765.04638 -2509912.2970000003,3470764.0199100003 -2510011.46233,3470764.3675500005" priority="-1" numLanes="1" speed="110.0" allow="rail rail_electric" spreadType="center" />
<!-- Track bb343622-dcea-43a3-997b-fe3441c023b0 -->
<edge id="023b0-0" from="eb3ea" to="77c11" shape="-2507071.66039,3470921.66581 -2506745.70262,3470938.94919" priority="-1" numLanes="1" speed="110.0" allow="rail rail_electric" spreadType="center" />
<edge id="023b0-0-re" from="77c11" to="eb3ea" shape="-2506745.70262,3470938.94919 -2507071.66039,3470921.66581" priority="-1" numLanes="1" speed="110.0" allow="rail rail_electric" spreadType="center" />
<!-- Track 97d559ab-f8d6-47d5-9c56-e875ee4b5561 -->
<edge id="b5561-0" from="eb3ea" to="5556c" shape="-2507071.66039,3470921.66581 -2506960.9455500003,3470921.9355800003 -2506897.57649,3470923.948589999" priority="-1" numLanes="1" speed="110.0" allow="rail rail_electric" spreadType="center" />
<edge id="b5561-0-re" from="5556c" to="eb3ea" shape="-2506897.57649,3470923.948589999 -2506960.9455500003,3470921.9355800003 -2507071.66039,3470921.66581" priority="-1" numLanes="1" speed="110.0" allow="rail rail_electric" spreadType="center" />
<!-- Track 9efdbd27-1e94-457e-b367-49537f3a3979 -->
<edge id="a3979-0" from="77c11" to="00c8d" shape="-2506745.70262,3470938.94919 -2506593.17397,3470944.0133999996 -2506499.74365,3470941.0314300004 -2506418.31895,3470934.1843299996 -2506352.3831700003,3470925.9102299996 -2506268.30209,3470912.16694 -2506160.8743000003,3470893.150389999 -2506069.87231,3470877.188720001 -2505978.36338,3470863.2813399993 -2505920.50602,3470857.121649999 -2505862.6463200003,3470852.3770899996 -2505755.6594000002,3470848.2648099996 -2505183.51114,3470840.0643000007 -2504953.31876,3470836.53166 -2504898.2586000003,3470837.06525 -2504843.19858,3470838.6499799993 -2504752.0697600003,3470844.6316 -2504645.4195600003,3470857.80494 -2504534.9865800003,3470877.8561000004 -2503993.4181399997,3470992.1530300006 -2503939.0420500003,3471003.2233700007 -2503869.00006,3471017.41753 -2503737.81491,3471041.39064 -2503656.5713,3471052.921359999 -2503570.57276,3471062.1162 -2503324.9336,3471085.1787599996 -2503147.6838499997,3471102.59585 -2503020.34882,3471114.29631 -2502939.84373,3471119.6212799996 -2502871.89759,3471120.70899 -2502796.32981,3471117.2461699992 -2502717.50613,3471109.0490000006 -2502640.42424,3471096.1476099994 -2502548.85005,3471075.1825600006 -2502473.68744,3471052.2994599994 -2502404.14932,3471027.2335800007 -2502317.777,3470989.05308 -2502245.54795,3470949.7793799993 -2502182.4865800003,3470909.7654599994 -2502134.28784,3470873.7692600004 -2502081.7362200003,3470827.3186600003 -2502030.58762,3470774.5952400006 -2501981.98264,3470708.6416999996 -2501951.02899,3470652.3817299996 -2501930.54732,3470598.27159 -2501918.03998,3470547.831289999 -2501914.6331,3470497.95558 -2501918.45208,3470455.2547699995 -2501928.42743,3470410.2291599996 -2501937.9534299998,3470382.8024000004 -2501948.96607,3470360.1806700006 -2501959.5533600003,3470340.4715299997 -2501972.35089,3470320.22081 -2501991.9096999997,3470291.755519999 -2502005.53186,3470273.8608999997 -2502019.07712,3470252.1376300007" priority="-1" numLanes="1" speed="110.0" allow="rail rail_electric" spreadType="center" />
<edge id="a3979-0-re" from="00c8d" to="77c11" shape="-2502019.07712,3470252.1376300007 -2502005.53186,3470273.8608999997 -2501991.9096999997,3470291.755519999 -2501972.35089,3470320.22081 -2501959.5533600003,3470340.4715299997 -2501948.96607,3470360.1806700006 -2501937.9534299998,3470382.8024000004 -2501928.42743,3470410.2291599996 -2501918.45208,3470455.2547699995 -2501914.6331,3470497.95558 -2501918.03998,3470547.831289999 -2501930.54732,3470598.27159 -2501951.02899,3470652.3817299996 -2501981.98264,3470708.6416999996 -2502030.58762,3470774.5952400006 -2502081.7362200003,3470827.3186600003 -2502134.28784,3470873.7692600004 -2502182.4865800003,3470909.7654599994 -2502245.54795,3470949.7793799993 -2502317.777,3470989.05308 -2502404.14932,3471027.2335800007 -2502473.68744,3471052.2994599994 -2502548.85005,3471075.1825600006 -2502640.42424,3471096.1476099994 -2502717.50613,3471109.0490000006 -2502796.32981,3471117.2461699992 -2502871.89759,3471120.70899 -2502939.84373,3471119.6212799996 -2503020.34882,3471114.29631 -2503147.6838499997,3471102.59585 -2503324.9336,3471085.1787599996 -2503570.57276,3471062.1162 -2503656.5713,3471052.921359999 -2503737.81491,3471041.39064 -2503869.00006,3471017.41753 -2503939.0420500003,3471003.2233700007 -2503993.4181399997,3470992.1530300006 -2504534.9865800003,3470877.8561000004 -2504645.4195600003,3470857.80494 -2504752.0697600003,3470844.6316 -2504843.19858,3470838.6499799993 -2504898.2586000003,3470837.06525 -2504953.31876,3470836.53166 -2505183.51114,3470840.0643000007 -2505755.6594000002,3470848.2648099996 -2505862.6463200003,3470852.3770899996 -2505920.50602,3470857.121649999 -2505978.36338,3470863.2813399993 -2506069.87231,3470877.188720001 -2506160.8743000003,3470893.150389999 -2506268.30209,3470912.16694 -2506352.3831700003,3470925.9102299996 -2506418.31895,3470934.1843299996 -2506499.74365,3470941.0314300004 -2506593.17397,3470944.0133999996 -2506745.70262,3470938.94919" priority="-1" numLanes="1" speed="110.0" allow="rail rail_electric" spreadType="center" />
<!-- Track 7e89da27-d9ab-4df2-8068-1e0df2db2591 -->
<edge id="b2591-0" from="77c11" to="bf5ee" shape="-2506745.70262,3470938.94919 -2506841.06013,3470928.3736499995 -2506878.59963,3470925.1383599993" priority="-1" numLanes="1" speed="110.0" allow="rail rail_electric" spreadType="center" />
<edge id="b2591-0-re" from="bf5ee" to="77c11" shape="-2506878.59963,3470925.1383599993 -2506841.06013,3470928.3736499995 -2506745.70262,3470938.94919" priority="-1" numLanes="1" speed="110.0" allow="rail rail_electric" spreadType="center" />
<!-- Track 210722c8-eb9d-46e9-9a41-a9e79616ea1e -->
<edge id="6ea1e-0" from="00c8d" to="e6f74" shape="-2502019.07712,3470252.1376300007 -2502227.88114,3469966.933289999" priority="-1" numLanes="1" speed="110.0" allow="rail rail_electric" spreadType="center" />
<edge id="6ea1e-0-re" from="e6f74" to="00c8d" shape="-2502227.88114,3469966.933289999 -2502019.07712,3470252.1376300007" priority="-1" numLanes="1" speed="110.0" allow="rail rail_electric" spreadType="center" />
<!-- Track 3d735def-2955-4def-9ef1-6c7ab6c9f502 -->
<edge id="9f502-0" from="00c8d" to="2fa28" shape="-2502019.07712,3470252.1376300007 -2502051.29037,3470193.1874400005 -2502065.25229,3470168.9424600005" priority="-1" numLanes="1" speed="110.0" allow="rail rail_electric" spreadType="center" />
<edge id="9f502-0-re" from="2fa28" to="00c8d" shape="-2502065.25229,3470168.9424600005 -2502051.29037,3470193.1874400005 -2502019.07712,3470252.1376300007" priority="-1" numLanes="1" speed="110.0" allow="rail rail_electric" spreadType="center" />
<!-- Track f02eba6a-9c0b-41f0-a440-1907bc09ae4b -->