<edges>
<!-- Track a4951ae9-d828-4deb-8f7a-5a2818fcedd4 -->
<edge id="cedd4-0" from="8d3bd" to="d1fd6" shape="-2502198.12597,3467432.6135300007 -2502326.87985,3467457.56728 -2502538.0035300003,3467500.4087799992" priority="-1" numLanes="1" speed="110.0" allow="rail rail_electric" spreadType="center" />
<edge id="cedd4-0-re" from="d1fd6" to="8d3bd" shape="-2502538.0035300003,3467500.4087799992 -2502326.87985,3467457.56728 -2502198.12597,3467432.6135300007" priority="-1" numLanes="1" speed="110.0" allow="rail rail_electric" spreadType="center" />
<!-- Track 51d2df90-0b42-48cd-9e48-55b55257e30b -->
<edge id="7e30b-0" from="8d3bd" to="3b39f" shape="-2502198.12597,3467432.6135300007 -2502011.2665299997,3467395.2331499998" priority="-1" numLanes="1" speed="110.0" allow="rail rail_electric" spreadType="center" />
<edge id="7e30b-0-re" from="3b39f" to="8d3bd" shape="-2502011.2665299997,3467395.2331499998 -2502198.12597,3467432.6135300007" priority="-1" numLanes="1" speed="110.0" allow="rail rail_electric" spreadType="center" />
<!-- Track cf13aed5-dc1a-4674-89b4-f787083094cf -->
<edge id="094cf-0" from="8d3bd" to="e4d7f" shape="-2502198.12597,3467432.6135300007 -2501986.54402,3467407.1456000004 -2501941.3945899997,3467406.669229999 -2501900.14021,3467408.084829999 -2501830.26282,3467412.3299899995 -2501757.78116,3467419.529619999 -2501699.91196,3467418.6983400006 -2501637.2375,3467415.15701 -2501580.2459899997,3467407.526350001 -2501328.4789,3467357.3175099995" priority="-1" numLanes="1" speed="110.0" allow="rail rail_electric" spreadType="center" />
<edge id="094cf-0-re" from="e4d7f" to="8d3bd" shape="-2501328.4789,3467357.3175099995 -2501580.2459899997,3467407.526350001 -2501637.2375,3467415.15701 -2501699.91196,3467418.6983400006 -2501757.78116,3467419.529619999 -2501830.26282,3467412.3299899995 -2501900.14021,3467408.084829999 -2501941.3945899997,3467406.669229999 -2501986.54402,3467407.1456000004 -2502198.12597,3467432.6135300007" priority="-1" numLanes="1" speed="110.0" allow="rail rail_electric" spreadType="center" />
<!-- Track 07ef1731-09db-4826-983a-6e274715f4ab -->
<edge id="5f4ab-0" from="3b39f" to="e6bdd" shape="-2502011.2665299997,3467395.2331499998 -2501902.1878899997,3467380.7301499993 -2501866.15293,3467378.21363 -2501673.07656,3467367.35386 -2501592.4169300003,3467359.1409399994 -2501551.4473,3467353.0741799995 -2501505.25312,3467345.7809800003 -2501206.74259,3467286.4816500004" priority="-1" numLanes="1" speed="110.0" allow="rail rail_electric" spreadType="center" />
<edge id="5f4ab-0-re" from="e6bdd" to="3b39f" shape="-2501206.74259,3467286.4816500004 -2501505.25312,3467345.7809800003 -2501551.4473,3467353.0741799995 -2501592.4169300003,3467359.1409399994 -2501673.07656,3467367.35386 -2501866.15293,3467378.21363 -2501902.1878899997,3467380.7301499993 -2502011.2665299997,3467395.2331499998" priority="-1" numLanes="1" speed="110.0" allow="rail rail_electric" spreadType="center" />
<!-- Track 89be4565-ec1c-4779-b6ec-03484bf5be8c -->
<edge id="5be8c-0" from="3b39f" to="8f4f2" shape="-2502011.2665299997,3467395.2331499998 -2501807.9043300003,3467349.8108099997 -2501754.26764,3467336.96999" priority="-1" numLanes="1" speed="110.0" allow="rail rail_electric" spreadType="center" />
<edge id="5be8c-0-re" from="8f4f2" to="3b39f" shape="-2501754.26764,3467336.96999 -2501807.9043300003,3467349.8108099997 -2502011.2665299997,3467395.2331499998" priority="-1" numLanes="1" speed="110.0" allow="rail rail_electric" spreadType="center" />
<!-- Track 78634017-86ee-4a20-b481-b6e7a29e63c0 -->
<edge id="e63c0-0" from="e6bdd" to="ae0c1" shape="-2501206.74259,3467286.4816500004 -2501015.8400600003,3467247.873880001" priority="-1" numLanes="1" speed="110.0" allow="rail rail_electric" spreadType="center" />
<edge id="e63c0-0-re" from="ae0c1" to="e6bdd" shape="-2501015.8400600003,3467247.873880001 -2501206.74259,3467286.4816500004" priority="-1" numLanes="1" speed="110.0" allow="rail rail_electric" spreadType="center" />
<!-- Track eacbbd39-a1cc-40e8-a9ef-bd58d483a912 -->
<edge id="3a912-0" from="e6bdd" to="bd8d4" shape="-2501206.74259,3467286.4816500004 -2501292.26427,3467298.73656 -2501351.82864,3467306.9248900004 -2501777.8962399997,3467364.0153800007" priority="-1" numLanes="1" speed="110.0" allow="rail rail_electric" spreadType="center" />
<edge id="3a912-0-re" from="bd8d4" to="e6bdd" shape="-2501777.8962399997,3467364.0153800007 -2501351.82864,3467306.9248900004 -2501292.26427,3467298.73656 -2501206.74259,3467286.4816500004" priority="-1" numLanes="1" speed="110.0" allow="rail rail_electric" spreadType="center" />
<!-- Track 57e07acb-fdd9-4953-95b5-968904b7ae9c -->
<edge id="7ae9c-0" from="ae0c1" to="30c77" shape="-2501015.8400600003,3467247.873880001 -2500319.68061,3467109.52558" priority="-1" numLanes="1" speed="110.0" allow="rail rail_electric" spreadType="center" />
<edge id="7ae9c-0-re" from="30c77" to="ae0c1" shape="-2500319.68061,3467109.52558 -2501015.8400600003,3467247.873880001" priority="-1" numLanes="1" speed="110.0" allow="rail rail_electric" spreadType="center" />
<!-- Track b455e3ec-bf8b-40fa-ab64-9cd22614e766 -->
<edge id="4e766-0" from="ae0c1" to="ee317" shape="-2501015.8400600003,3467247.873880001 -2501115.08361,3467272.0554600004 -2501236.73985,3467305.6705399994 -2501274.0125700003,3467312.661529999 -2501684.7521200003,3467394.7215800006" priority="-1" numLanes="1" speed="110.0" allow="rail rail_electric" spreadType="center" />
<edge id="4e766-0-re" from="ee317" to="ae0c1" shape="-2501684.7521200003,3467394.7215800006 -2501274.0125700003,3467312.661529999 -2501236.73985,3467305.6705399994 -2501115.08361,3467272.0554600004 -2501015.8400600003,3467247.873880001" priority="-1" numLanes="1" speed="110.0" allow="rail rail_electric" spreadType="center" />
<!-- Track 76f77377-26b2-49ae-873d-07accaa10010 -->
<edge id="10010-0" from="0a0d4" to="92649" shape="-2498540.54764,3466763.4935800005 -2498402.6613499997,3466732.73161 -2498329.96588,3466713.1247499995 -2498268.72423,3466698.8420899995" priority="-1" numLanes="1" speed="110.0" allow="rail rail_electric" spreadType="center" />
<edge id="10010-0-re" from="92649" to="0a0d4" shape="-2498268.72423,3466698.8420899995 -2498329.96588,3466713.1247499995 -2498402.6613499997,3466732.73161 -2498540.54764,3466763.4935800005" priority="-1" numLanes="1" speed="110.0" allow="rail rail_electric" spreadType="center" />
<!-- Track 0dc8de41-671e-4d50-b1b0-d44d8ab6f1d6 -->
<edge id="6f1d6-0" from="0a0d4" to="4c4c7" shape="-2498540.54764,3466763.4935800005 -2498576.53387,3466770.6508099996" priority="-1" numLanes="1" speed="110.0" allow="rail rail_electric" spreadType="center" />
<edge id="6f1d6-0-re" from="4c4c7" to="0a0d4" shape="-2498576.53387,3466770.6508099996 -2498540.54764,3466763.4935800005" priority="-1" numLanes="1" speed="110.0" allow="rail rail_electric" spreadType="center" />
<!-- Track f0adc0c6-8a8b-4b40-942b-55c47e01972b -->
<edge id="1972b-0" from="0a0d4" to="1016f" shape="-2498540.54764,3466763.4935800005 -2498252.68266,3466726.1891099997 -2498197.48094,3466721.89085 -2498139.02323,3466720.706219999 -2498060.3311900003,3466723.9792299997 -2497982.49469,3466733.01819 -2497909.9296500003,3466748.15646 -2497850.34973,3466766.0617699996 -2497809.3890500003,3466783.1006199997 -2497777.6173099997,3466798.02104 -2497757.65106,3466807.11544 -2497727.25933,3466826.2988600004 -2497702.75416,3466844.8849400003 -2497672.7243999997,3466868.5284599997 -2497638.29837,3466909.5678899996 -2497613.25141,3466948.8926599994 -2497593.60754,3466989.2724399995 -2497575.08128,3467046.9352100007 -2497569.9086800003,3467066.7781099994 -2497563.73441,3467105.96246 -2497557.50134,3467146.900459999 -2497556.05418,3467193.9233500008 -2497556.2335200002,3467236.8809600007 -2497560.39695,3467302.4759100005 -2497575.63252,3467387.626049999 -2497591.92547,3467452.675519999 -2497624.94031,3467543.71119 -2497663.94741,3467628.118450001 -2497712.75335,3467713.11197 -2497760.3523,3467784.1246099994 -2497825.04466,3467867.2288099993 -2497882.94791,3467933.29803 -2497954.1841700003,3468006.7475000005 -2498048.39064,3468092.79583 -2498147.8514,3468178.25674 -2498263.92411,3468270.6784099992 -2498342.1996999998,3468330.46768 -2498420.80864,3468386.5413499996 -2498652.22039,3468554.6521700006 -2499030.181,3468824.3028100003 -2499492.79879,3469158.6472699996 -2499607.48544,3469240.3513200004 -2500024.2620200003,3469539.477430001 -2500184.64418,3469655.1375200003 -2500305.05141,3469739.8357100002 -2500418.8024899997,3469824.2594099995 -2500574.48892,3469936.35939 -2500644.86252,3469986.7818100005 -2500688.49554,3470018.4375" priority="-1" numLanes="1" speed="110.0" allow="rail rail_electric" spreadType="center" />
<edge id="1972b-0-re" from="1016f" to="0a0d4" shape="-2500688.49554,3470018.4375 -2500644.86252,3469986.7818100005 -2500574.48892,3469936.35939 -2500418.8024899997,3469824.2594099995 -2500305.05141,3469739.8357100002 -2500184.64418,3469655.1375200003 -2500024.2620200003,3469539.477430001 -2499607.48544,3469240.3513200004 -2499492.79879,3469158.6472699996 -2499030.181,3468824.3028100003 -2498652.22039,3468554.6521700006 -2498420.80864,3468386.5413499996 -2498342.1996999998,3468330.46768 -2498263.92411,3468270.6784099992 -2498147.8514,3468178.25674 -2498048.39064,3468092.79583 -2497954.1841700003,3468006.7475000005 -2497882.94791,3467933.29803 -2497825.04466,3467867.2288099993 -2497760.3523,3467784.1246099994 -2497712.75335,3467713.11197 -2497663.94741,3467628.118450001 -2497624.94031,3467543.71119 -2497591.92547,3467452.675519999 -2497575.63252,3467387.626049999 -2497560.39695,3467302.4759100005 -2497556.2335200002,3467236.8809600007 -2497556.05418,3467193.9233500008 -2497557.50134,3467146.900459999 -2497563.73441,3467105.96246 -2497569.9086800003,3467066.7781099994 -2497575.08128,3467046.9352100007 -2497593.60754,3466989.2724399995 -2497613.25141,3466948.8926599994 -2497638.29837,3466909.5678899996 -2497672.7243999997,3466868.5284599997 -2497702.75416,3466844.8849400003 -2497727.25933,3466826.2988600004 -2497757.65106,3466807.11544 -2497777.6173099997,3466798.02104 -2497809.3890500003,3466783.1006199997 -2497850.34973,3466766.0617699996 -2497909.9296500003,3466748.15646 -2497982.49469,3466733.01819 -2498060.3311900003,3466723.9792299997 -2498139.02323,3466720.706219999 -2498197.48094,3466721.89085 -2498252.68266,3466726.1891099997 -2498540.54764,3466763.4935800005" priority="-1" numLanes="1" speed="110.0" allow="rail rail_electric" spreadType="center" />
<!-- Track 62d39407-2c0a-4e5d-b722-a966f6b89ced -->
<edge id="89ced-0" from="92649" to="3d0c9" shape="-2498268.72423,3466698.8420899995 -2498747.89618,3466795.468219999" priority="-1" numLanes="1" speed="110.0" allow="rail rail_electric" spreadType="center" />
<edge id="89ced-0-re" from="3d0c9" to="92649" shape="-2498747.89618,3466795.468219999 -2498268.72423,3466698.8420899995" priority="-1" numLanes="1" speed="110.0" allow="rail rail_electric" spreadType="center" />
<!-- Track f08fcde7-9fef-4c27-877a-a3e20a63047b -->
<edge id="3047b-0" from="92649" to="a531a" shape="-2498268.72423,3466698.8420899995 -2497683.84035,3466580.68341 -2497616.70742,3466562.6213700008 -2497555.57539,3466541.44915 -2497493.5793000003,3466516.0916099995 -2497432.28336,3466486.141829999 -2497376.3927100003,3466452.90364 -2497326.80472,3466420.47088 -2497278.2940499997,3466378.9560199995 -2497243.99343,3466345.50536 -2497199.77704,3466293.87476 -2497166.09967,3466237.4059999995 -2497145.7740700003,3466189.32962 -2497129.6652800003,3466136.54428 -2497120.9402799997,3466053.3049500007 -2497107.6139,3465873.5539800003 -2497105.27989,3465831.8552 -2497092.47124,3465670.9046800006 -2497083.5450299997,3465548.59633" priority="-1" numLanes="1" speed="110.0" allow="rail rail_electric" spreadType="center" />
<edge id="3047b-0-re" from="a531a" to="92649" shape="-2497083.5450299997,3465548.59633 -2497092.47124,3465670.9046800006 -2497105.27989,3465831.8552 -2497107.6139,3465873.5539800003 -2497120.9402799997,3466053.3049500007 -2497129.6652800003,3466136.54428 -2497145.7740700003,3466189.32962 -2497166.09967,3466237.4059999995 -2497199.77704,3466293.87476 -2497243.99343,3466345.50536 -2497278.2940499997,3466378.9560199995 -2497326.80472,3466420.47088 -2497376.3927100003,3466452.90364 -2497432.28336,3466486.141829999 -2497493.5793000003,3466516.0916099995 -2497555.57539,3466541.44915 -2497616.70742,3466562.6213700008 -2497683.84035,3466580.68341 -2498268.72423,3466698.8420899995" priority="-1" numLanes="1" speed="110.0" allow="rail rail_electric" spreadType="center" />
<!-- Track 6b065fbe-203b-4b1a-ab96-54da018b6bb8 -->
<edge id="b6bb8-0" from="2e0fc" to="09c22" shape="-2497040.4622299997,3464885.77458 -2497015.99143,3464028.421530001 -2497013.97126,3463976.808390001 -2497009.42261,3463938.33306 -2497000.0510400003,3463878.5135699995 -2496980.11027,3463796.085000001 -2496942.81543,3463687.8461499996 -2496891.7515700003,3463554.4648199994 -2496594.61733,3462763.889389999 -2496506.79474,3462530.2199099995 -2496450.0170400003,3462387.64068 -2496394.26611,3462244.6163500007 -2496373.25611,3462190.691919999 -2496357.6298599998,3462153.2097500004 -2496304.40159,3462020.9167100005" priority="-1" numLanes="1" speed="110.0" allow="rail rail_electric" spreadType="center" />
<edge id="b6bb8-0-re" from="09c22" to="2e0fc" shape="-2496304.40159,3462020.9167100005 -2496357.6298599998,3462153.2097500004 -2496373.25611,3462190.691919999 -2496394.26611,3462244.6163500007 -2496450.0170400003,3462387.64068 -2496506.79474,3462530.2199099995 -2496594.61733,3462763.889389999 -2496891.7515700003,3463554.4648199994 -2496942.81543,3463687.8461499996 -2496980.11027,3463796.085000001 -2497000.0510400003,3463878.5135699995 -2497009.42261,3463938.33306 -2497013.97126,3463976.808390001 -2497015.99143,3464028.421530001 -2497040.4622299997,3464885.77458" priority="-1" numLanes="1" speed="110.0" allow="rail rail_electric" spreadType="center" />
<!-- Track bace6d7e-c4cf-403c-8c0e-74963fd6e41e -->
<edge id="6e41e-0" from="2e0fc" to="94186" shape="-2497040.4622299997,3464885.77458 -2497041.4403999997,3464952.8688200004" priority="-1" numLanes="1" speed="110.0" allow="rail rail_electric" spreadType="center" />
<edge id="6e41e-0-re" from="94186" to="2e0fc" shape="-2497041.4403999997,3464952.8688200004 -2497040.4622299997,3464885.77458" priority="-1" numLanes="1" speed="110.0" allow="rail rail_electric" spreadType="center" />
<!-- Track e28fe1dc-797e-4385-abb1-d6252fd4cd12 -->
<edge id="4cd12-0" from="2e0fc" to="edc8e" shape="-2497040.4622299997,3464885.77458 -2497046.63124,3464821.1730000004 -2497048.08977,3464789.196489999" priority="-1" numLanes="1" speed="110.0" allow="rail rail_electric" spreadType="center" />
<edge id="4cd12-0-re" from="edc8e" to="2e0fc" shape="-2497048.08977,3464789.196489999 -2497046.63124,3464821.1730000004 -2497040.4622299997,3464885.77458" priority="-1" numLanes="1" speed="110.0" allow="rail rail_electric" spreadType="center" />
<!-- Track aea88fcf-0857-4ada-a8b1-c168a954af18 -->
<edge id="4af18-0" from="ad632" to="e660c" shape="-2496162.36355,3464067.9474400003 -2496131.91341,3464011.2853200007" priority="-1" numLanes="1" speed="110.0" allow="rail rail_electric" spreadType="center" />
<edge id="4af18-0-re" from="e660c" to="ad632" shape="-2496131.91341,3464011.2853200007 -2496162.36355,3464067.9474400003" priority="-1" numLanes="1" speed="110.0" allow="rail rail_electric" spreadType="center" />
<!-- Track 229877d7-b343-445f-bdbd-c3b6a27ad6d2 -->
<edge id="ad6d2-0" from="ad632" to="f495a" shape="-2496162.36355,3464067.9474400003 -2496089.0351799997,3463971.1033299994" priority="-1" numLanes="1" speed="110.0" allow="rail rail_electric" spreadType="center" />
<edge id="ad6d2-0-re" from="f495a" to="ad632" shape="-2496089.0351799997,3463971.1033299994 -2496162.36355,3464067.9474400003" priority="-1" numLanes="1" speed="110.0" allow="rail rail_electric" spreadType="center" />
<!-- Track bc36b2e3-588e-4eec-9a64-c5303fefd8c1 -->
<edge id="fd8c1-0" from="ad632" to="32af9" shape="-2496162.36355,3464067.9474400003 -2496199.62101,3464133.6441600006 -2496271.1276000002,3464260.7358800005" priority="-1" numLanes="1" speed="110.0" allow="rail rail_electric" spreadType="center" />
<edge id="fd8c1-0-re" from="32af9" to="ad632" shape="-2496271.1276000002,3464260.7358800005 -2496199.62101,3464133.6441600006 -2496162.36355,3464067.9474400003" priority="-1" numLanes="1" speed="110.0" allow="rail rail_electric" spreadType="center" />
<!-- Track ad3a4e0d-c9f5-4cb8-973d-10579b3424a0 -->
<edge id="424a0-0" from="e660c" to="cebb5" shape="-2496131.91341,3464011.2853200007 -2495593.77887,3463048.5656199995" priority="-1" numLanes="1" speed="110.0" allow="rail rail_electric" spreadType="center" />
<edge id="424a0-0-re" from="cebb5" to="e660c" shape="-2495593.77887,3463048.5656199995 -2496131.91341,3464011.2853200007" priority="-1" numLanes="1" speed="110.0" allow="rail rail_electric" spreadType="center" />
<!-- Track 15b26d0b-c73a-40c0-8bc2-58a6a7f52a54 -->
<edge id="52a54-0" from="e660c" to="ff7c2" shape="-2496131.91341,3464011.2853200007 -2496096.6506000003,3463962.0940799993" priority="-1" numLanes="1" speed="110.0" allow="rail rail_electric" spreadType="center" />
<edge id="52a54-0-re" from="ff7c2" to="e660c" shape="-2496096.6506000003,3463962.0940799993 -2496131.91341,3464011.2853200007" priority="-1" numLanes="1" speed="110.0" allow="rail rail_electric" spreadType="center" />
<!-- Track f4c276d9-5b87-49df-a501-5baba2e28e2b -->
<edge id="28e2b-0" from="cebb5" to="568c6" shape="-2495593.77887,3463048.5656199995 -2495572.8213400003,3463024.2260299996" priority="-1" numLanes="1" speed="110.0" allow="rail rail_electric" spreadType="center" />
<edge id="28e2b-0-re" from="568c6" to="cebb5" shape="-2495572.8213400003,3463024.2260299996 -2495593.77887,3463048.5656199995" priority="-1" numLanes="1" speed="110.0" allow="rail rail_electric" spreadType="center" />
<!-- Track 653016f1-c35c-44b2-8d27-91e9881ad41e -->
<edge id="ad41e-0" from="cebb5" to="30c28" shape="-2495593.77887,3463048.5656199995 -2495643.0004000003,3463115.443050001" priority="-1" numLanes="1" speed="110.0" allow="rail rail_electric" spreadType="center" />
<edge id="ad41e-0-re" from="30c28" to="cebb5" shape="-2495643.0004000003,3463115.443050001 -2495593.77887,3463048.5656199995" priority="-1" numLanes="1" speed="110.0" allow="rail rail_electric" spreadType="center" />
<!-- Track cef9a55c-a4bb-462e-a7c5-392149f60c9c -->
<edge id="60c9c-0" from="568c6" to="8a09c" shape="-2495572.8213400003,3463024.2260299996 -2495551.4765999997,3462986.0530600008" priority="-1" numLanes="1" speed="110.0" allow="rail rail_electric" spreadType="center" />
<edge id="60c9c-0-re" from="8a09c" to="568c6" shape="-2495551.4765999997,3462986.0530600008 -2495572.8213400003,3463024.2260299996" priority="-1" numLanes="1" speed="110.0" allow="rail rail_electric" spreadType="center" />
<!-- Track 5d947ff8-75c2-462e-8c5d-18ada68d923a -->
<edge id="d923a-0" from="568c6" to="ff7c2" shape="-2495572.8213400003,3463024.2260299996 -2496060.75423,3463900.6843599994 -2496096.6506000003,3463962.0940799993" priority="-1" numLanes="1" speed="110.0" allow="rail rail_electric" spreadType="center" />
<edge id="d923a-0-re" from="ff7c2" to="568c6" shape="-2496096.6506000003,3463962.0940799993 -2496060.75423,3463900.6843599994 -2495572.8213400003,3463024.2260299996" priority="-1" numLanes="1" speed="110.0" allow="rail rail_electric" spreadType="center" />
<!-- Track d215c8dd-2602-446b-8c72-5421ab9f6bae -->
<edge id="f6bae-0" from="8a09c" to="ff6cd" shape="-2495551.4765999997,3462986.0530600008 -2495336.3058,3462600.37651 -2495318.0454,3462566.56484" priority="-1" numLanes="1" speed="110.0" allow="rail rail_electric" spreadType="center" />
<edge id="f6bae-0-re" from="ff6cd" to="8a09c" shape="-2495318.0454,3462566.56484 -2495336.3058,3462600.37651 -2495551.4765999997,3462986.0530600008" priority="-1" numLanes="1" speed="110.0" allow="rail rail_electric" spreadType="center" />
<!-- Track 62c7c119-5ec5-4560-90bc-3dd6fd1e18bc -->
<edge id="e18bc-0" from="8a09c" to="e2908" shape="-2495551.4765999997,3462986.0530600008 -2495566.34365,3463036.3671899997" priority="-1" numLanes="1" speed="110.0" allow="rail rail_electric" spreadType="center" />
<edge id="e18bc-0-re" from="e2908" to="8a09c" shape="-2495566.34365,3463036.3671899997 -2495551.4765999997,3462986.0530600008" priority="-1" numLanes="1" speed="110.0" allow="rail rail_electric" spreadType="center" />
<!-- Track 4d534ecd-8df2-4bef-9301-7de1e37c46ee -->
<edge id="c46ee-0" from="ff6cd" to="46bf9" shape="-2495318.0454,3462566.56484 -2495275.3629099997,3462471.4147699997" priority="-1" numLanes="1" speed="110.0" allow="rail rail_electric" spreadType="center" />
<edge id="c46ee-0-re" from="46bf9" to="ff6cd" shape="-2495275.3629099997,3462471.4147699997 -2495318.0454,3462566.56484" priority="-1" numLanes="1" speed="110.0" allow="rail rail_electric" spreadType="center" />
<!-- Track e0f623f8-ed10-4273-ae5e-17e7420e3c95 -->
<edge id="e3c95-0" from="ff6cd" to="f7812" shape="-2495318.0454,3462566.56484 -2495261.22944,3462466.0143" priority="-1" numLanes="1" speed="110.0" allow="rail rail_electric" spreadType="center" />
<edge id="e3c95-0-re" from="f7812" to="ff6cd" shape="-2495261.22944,3462466.0143 -2495318.0454,3462566.56484" priority="-1" numLanes="1" speed="110.0" allow="rail rail_electric" spreadType="center" />
<!-- Track 2c2b5281-1b0f-4488-b5a5-6c33579341f8 -->
<edge id="341f8-0" from="46bf9" to="4a3f9" shape="-2495275.3629099997,3462471.4147699997 -2495247.65842,3462423.4483199995 -2495179.00108,3462297.0050300006 -2494949.94752,3461888.1476799995 -2494784.43721,3461589.2829" priority="-1" numLanes="1" speed="110.0" allow="rail rail_electric" spreadType="center" />
<edge id="341f8-0-re" from="4a3f9" to="46bf9" shape="-2494784.43721,3461589.2829 -2494949.94752,3461888.1476799995 -2495179.00108,3462297.0050300006 -2495247.65842,3462423.4483199995 -2495275.3629099997,3462471.4147699997" priority="-1" numLanes="1" speed="110.0" allow="rail rail_electric" spreadType="center" />
<!-- Track 0f36ed04-118b-4dfb-9cd9-06732f44c9f5 -->
<edge id="4c9f5-0" from="46bf9" to="29d37" shape="-2495275.3629099997,3462471.4147699997 -2495302.56032,3462519.2630899996 -2495343.4118600003,3462577.7074100003" priority="-1" numLanes="1" speed="110.0" allow="rail rail_electric" spreadType="center" />
<edge id="4c9f5-0-re" from="29d37" to="46bf9" shape="-2495343.4118600003,3462577.7074100003 -2495302.56032,3462519.2630899996 -2495275.3629099997,3462471.4147699997" priority="-1" numLanes="1" speed="110.0" allow="rail rail_electric" spreadType="center" />
<!-- Track ef39d408-640c-4e8a-a581-d80f151d95f4 -->
<edge id="d95f4-0" from="527b2" to="69d4d" shape="-2503676.4045200003,3464880.5900599994 -2503635.0706700003,3465052.0235200003 -2503607.12248,3465120.9571400005 -2503579.73271,3465171.946249999 -2503552.3815200003,3465210.82446 -2503519.99755,3465253.85527 -2503484.10566,3465285.53331 -2503441.80859,3465312.84437 -2503393.6775,3465336.92815 -2503344.40879,3465354.9221400004 -2503290.9331799997,3465368.62108 -2503225.22822,3465381.620580001 -2503161.70919,3465388.0903699994 -2503114.7375499997,3465390.035460001 -2503064.22402,3465388.0879100002 -2503002.5785600003,3465382.1909800004 -2502939.97027,3465373.77052 -2502696.49747,3465323.1018000003" priority="-1" numLanes="1" speed="110.0" allow="rail rail_electric" spreadType="center" />
<edge id="d95f4-0-re" from="69d4d" to="527b2" shape="-2502696.49747,3465323.1018000003 -2502939.97027,3465373.77052 -2503002.5785600003,3465382.1909800004 -2503064.22402,3465388.0879100002 -2503114.7375499997,3465390.035460001 -2503161.70919,3465388.0903699994 -2503225.22822,3465381.620580001 -2503290.9331799997,3465368.62108 -2503344.40879,3465354.9221400004 -2503393.6775,3465336.92815 -2503441.80859,3465312.84437 -2503484.10566,3465285.53331 -2503519.99755,3465253.85527 -2503552.3815200003,3465210.82446 -2503579.73271,3465171.946249999 -2503607.12248,3465120.9571400005 -2503635.0706700003,3465052.0235200003 -2503676.4045200003,3464880.5900599994" priority="-1" numLanes="1" speed="110.0" allow="rail rail_electric" spreadType="center" />
<!-- Track 55431197-4623-4d8e-992c-521b9c9f8846 -->
<edge id="f8846-0" from="fdae0" to="ec07c" shape="-2504315.19839,3467381.2208900005 -2504196.30494,3467499.842049999 -2504114.68729,3467550.73412 -2504048.82027,3467584.3089000005 -2503977.56959,3467611.1882700007 -2503823.6388,3467651.6997599993 -2503736.82881,3467662.6912900005 -2503642.80157,3467670.1144399997 -2503560.23568,3467672.0382000003 -2503477.22757,3467666.7933900002 -2503415.06655,3467661.3092 -2503350.53566,3467653.1525299996 -2503249.2369,3467635.2567999996 -2502769.90934,3467539.5478499997" priority="-1" numLanes="1" speed="110.0" allow="rail rail_electric" spreadType="center" />
<edge id="f8846-0-re" from="ec07c" to="fdae0" shape="-2502769.90934,3467539.5478499997 -2503249.2369,3467635.2567999996 -2503350.53566,3467653.1525299996 -2503415.06655,3467661.3092 -2503477.22757,3467666.7933900002 -2503560.23568,3467672.0382000003 -2503642.80157,3467670.1144399997 -2503736.82881,3467662.6912900005 -2503823.6388,3467651.6997599993 -2503977.56959,3467611.1882700007 -2504048.82027,3467584.3089000005 -2504114.68729,3467550.73412 -2504196.30494,3467499.842049999 -2504315.19839,3467381.2208900005" priority="-1" numLanes="1" speed="110.0" allow="rail rail_electric" spreadType="center" />
<!-- Track 8835d923-26ed-49c0-b0fe-bb07ff38e774 -->
<edge id="8e774-0" from="fdae0" to="3363d" shape="-2504315.19839,3467381.2208900005 -2504239.28466,3467447.2822399996 -2504180.33148,3467493.5557199996 -2504100.13129,3467541.94929 -2504035.99351,3467573.0474900007 -2503962.7979800003,3467599.45806 -2503869.35323,3467622.69878 -2503813.91494,3467635.32814 -2503728.31624,3467647.142449999 -2503638.13174,3467653.1389799993 -2503560.65835,3467654.410940001 -2503473.71402,3467650.9798600003 -2503416.5269299997,3467645.70256 -2503362.1894300003,3467639.0051000006 -2503260.61771,3467621.4599900004 -2502347.22414,3467436.5157200005 -2502285.9478599997,3467423.9185300004 -2502080.05701,3467379.258509999 -2501552.0682800002,3467258.6395999994 -2501238.06836,3467195.82739" priority="-1" numLanes="1" speed="110.0" allow="rail rail_electric" spreadType="center" />
<edge id="8e774-0-re" from="3363d" to="fdae0" shape="-2501238.06836,3467195.82739 -2501552.0682800002,3467258.6395999994 -2502080.05701,3467379.258509999 -2502285.9478599997,3467423.9185300004 -2502347.22414,3467436.5157200005 -2503260.61771,3467621.4599900004 -2503362.1894300003,3467639.0051000006 -2503416.5269299997,3467645.70256 -2503473.71402,3467650.9798600003 -2503560.65835,3467654.410940001 -2503638.13174,3467653.1389799993 -2503728.31624,3467647.142449999 -2503813.91494,3467635.32814 -2503869.35323,3467622.69878 -2503962.7979800003,3467599.45806 -2504035.99351,3467573.0474900007 -2504100.13129,3467541.94929 -2504180.33148,3467493.5557199996 -2504239.28466,3467447.2822399996 -2504315.19839,3467381.2208900005" priority="-1" numLanes="1" speed="110.0" allow="rail rail_electric" spreadType="center" />
<!-- Track 84d79cfc-1152-4e4d-a18e-c088e7ed6957 -->
<edge id="d6957-0" from="fdae0" to="43985" shape="-2504315.19839,3467381.2208900005 -2504374.91192,3467310.9570700005" priority="-1" numLanes="1" speed="110.0" allow="rail rail_electric" spreadType="center" />
<edge id="d6957-0-re" from="43985" to="fdae0" shape="-2504374.91192,3467310.9570700005 -2504315.19839,3467381.2208900005" priority="-1" numLanes="1" speed="110.0" allow="rail rail_electric" spreadType="center" />
<!-- Track 5268ac94-e1e0-45b7-b31b-e5d6389c391d -->
<edge id="c391d-0" from="ec07c" to="859f9" shape="-2502769.90934,3467539.5478499997 -2502697.76023,3467525.5081900004" priority="-1" numLanes="1" speed="110.0" allow="rail rail_electric" spreadType="center" />
<edge id="c391d-0-re" from="859f9" to="ec07c" shape="-2502697.76023,3467525.5081900004 -2502769.90934,3467539.5478499997" priority="-1" numLanes="1" speed="110.0" allow="rail rail_electric" spreadType="center" />
<!-- Track 1cc465ee-7a89-4b3c-848d-16dbd48565a2 -->
<edge id="565a2-0" from="ec07c" to="dbdf5" shape="-2502769.90934,3467539.5478499997 -2502871.4633400002,3467565.5168500002 -2502942.75788,3467580.7814099994" priority="-1" numLanes="1" speed="110.0" allow="rail rail_electric" spreadType="center" />
<edge id="565a2-0-re" from="dbdf5" to="ec07c" shape="-2502942.75788,3467580.7814099994 -2502871.4633400002,3467565.5168500002 -2502769.90934,3467539.5478499997" priority="-1" numLanes="1" speed="110.0" allow="rail rail_electric" spreadType="center" />
<!-- Track 630f8de8-2b99-4f4a-ba4c-52cc875fcebc -->
<edge id="fcebc-0" from="859f9" to="8f4f2" shape="-2502697.76023,3467525.5081900004 -2502271.8737000003,3467440.74873 -2501991.25064,3467384.1340299994 -2501754.26764,3467336.96999" priority="-1" numLanes="1" speed="110.0" allow="rail rail_electric" spreadType="center" />
<edge id="fcebc-0-re" from="8f4f2" to="859f9" shape="-2501754.26764,3467336.96999 -2501991.25064,3467384.1340299994 -2502271.8737000003,3467440.74873 -2502697.76023,3467525.5081900004" priority="-1" numLanes="1" speed="110.0" allow="rail rail_electric" spreadType="center" />
<!-- Track f2ab8001-c63e-4391-b677-8d56814ebbf1 -->
<edge id="ebbf1-0" from="859f9" to="d1fd6" shape="-2502697.76023,3467525.5081900004 -2502585.30262,3467508.6943699997 -2502538.0035300003,3467500.4087799992" priority="-1" numLanes="1" speed="110.0" allow="rail rail_electric" spreadType="center" />
<edge id="ebbf1-0-re" from="d1fd6" to="859f9" shape="-2502538.0035300003,3467500.4087799992 -2502585.30262,3467508.6943699997 -2502697.76023,3467525.5081900004" priority="-1" numLanes="1" speed="110.0" allow="rail rail_electric" spreadType="center" />
<!-- Track df5ca875-0b60-448e-9965-98b0cf08dbcf -->