<connections>
<!-- Point 8d3bd 46571b96-a513-491a-9b9d-576274a8d3bd -->
<connection from="094cf-0" to="cedd4-0"/>
<connection from="094cf-0" to="cedd4-0-re"/>
<connection from="094cf-0-re" to="cedd4-0"/>
<connection from="094cf-0-re" to="cedd4-0-re"/>
<connection from="7e30b-0" to="cedd4-0"/>
<connection from="7e30b-0" to="cedd4-0-re"/>
<connection from="7e30b-0-re" to="cedd4-0"/>
<connection from="7e30b-0-re" to="cedd4-0-re"/>
<connection from="cedd4-0" to="094cf-0"/>
<connection from="cedd4-0" to="7e30b-0"/>
<connection from="cedd4-0" to="094cf-0-re"/>
<connection from="cedd4-0" to="7e30b-0-re"/>
<connection from="cedd4-0-re" to="094cf-0"/>
<connection from="cedd4-0-re" to="7e30b-0"/>
<connection from="cedd4-0-re" to="094cf-0-re"/>
<connection from="cedd4-0-re" to="7e30b-0-re"/>
<!-- Point 3b39f 7b346b24-c362-4923-80e1-d1068873b39f -->
<connection from="5f4ab-0" to="7e30b-0"/>
<connection from="5f4ab-0" to="7e30b-0-re"/>
<connection from="5f4ab-0-re" to="7e30b-0"/>
<connection from="5f4ab-0-re" to="7e30b-0-re"/>
<connection from="5be8c-0" to="7e30b-0"/>
<connection from="5be8c-0" to="7e30b-0-re"/>
<connection from="5be8c-0-re" to="7e30b-0"/>
<connection from="5be8c-0-re" to="7e30b-0-re"/>
<connection from="7e30b-0" to="5f4ab-0"/>
<connection from="7e30b-0" to="5be8c-0"/>
<connection from="7e30b-0" to="5f4ab-0-re"/>
<connection from="7e30b-0" to="5be8c-0-re"/>
<connection from="7e30b-0-re" to="5f4ab-0"/>
<connection from="7e30b-0-re" to="5be8c-0"/>
<connection from="7e30b-0-re" to="5f4ab-0-re"/>
<connection from="7e30b-0-re" to="5be8c-0-re"/>
<!-- Point e6bdd 98795e8b-d951-4762-9b3e-c885f30e6bdd -->
<connection from="5f4ab-0" to="e63c0-0"/>
<connection from="5f4ab-0" to="e63c0-0-re"/>
<connection from="5f4ab-0-re" to="e63c0-0"/>
<connection from="5f4ab-0-re" to="e63c0-0-re"/>
<connection from="3a912-0" to="e63c0-0"/>
<connection from="3a912-0" to="e63c0-0-re"/>
<connection from="3a912-0-re" to="e63c0-0"/>
<connection from="3a912-0-re" to="e63c0-0-re"/>
<connection from="e63c0-0" to="5f4ab-0"/>
<connection from="e63c0-0" to="3a912-0"/>
<connection from="e63c0-0" to="5f4ab-0-re"/>
<connection from="e63c0-0" to="3a912-0-re"/>
<connection from="e63c0-0-re" to="5f4ab-0"/>
<connection from="e63c0-0-re" to="3a912-0"/>
<connection from="e63c0-0-re" to="5f4ab-0-re"/>
<connection from="e63c0-0-re" to="3a912-0-re"/>
<!-- Point ae0c1 ae4459a8-33a1-4551-b214-91752d5ae0c1 -->
<connection from="e63c0-0" to="7ae9c-0"/>
<connection from="e63c0-0" to="7ae9c-0-re"/>
<connection from="e63c0-0-re" to="7ae9c-0"/>
<connection from="e63c0-0-re" to="7ae9c-0-re"/>
<connection from="4e766-0" to="7ae9c-0"/>
<connection from="4e766-0" to="7ae9c-0-re"/>
<connection from="4e766-0-re" to="7ae9c-0"/>
<connection from="4e766-0-re" to="7ae9c-0-re"/>
<connection from="7ae9c-0" to="e63c0-0"/>
<connection from="7ae9c-0" to="4e766-0"/>
<connection from="7ae9c-0" to="e63c0-0-re"/>
<connection from="7ae9c-0" to="4e766-0-re"/>
<connection from="7ae9c-0-re" to="e63c0-0"/>
<connection from="7ae9c-0-re" to="4e766-0"/>
<connection from="7ae9c-0-re" to="e63c0-0-re"/>
<connection from="7ae9c-0-re" to="4e766-0-re"/>
<!-- Point 0a0d4 c2b4a839-9be7-4be3-9aa4-aebae060a0d4 -->
<connection from="6f1d6-0" to="10010-0"/>
<connection from="6f1d6-0" to="10010-0-re"/>
<connection from="6f1d6-0-re" to="10010-0"/>
<connection from="6f1d6-0-re" to="10010-0-re"/>
<connection from="1972b-0" to="10010-0"/>
<connection from="1972b-0" to="10010-0-re"/>
<connection from="1972b-0-re" to="10010-0"/>
<connection from="1972b-0-re" to="10010-0-re"/>
<connection from="10010-0" to="6f1d6-0"/>
<connection from="10010-0" to="1972b-0"/>
<connection from="10010-0" to="6f1d6-0-re"/>
<connection from="10010-0" to="1972b-0-re"/>
<connection from="10010-0-re" to="6f1d6-0"/>
<connection from="10010-0-re" to="1972b-0"/>
<connection from="10010-0-re" to="6f1d6-0-re"/>
<connection from="10010-0-re" to="1972b-0-re"/>
<!-- Point 92649 76e1b48d-b521-4065-b56c-c45096f92649 -->
<connection from="89ced-0" to="3047b-0"/>
<connection from="89ced-0" to="3047b-0-re"/>
<connection from="89ced-0-re" to="3047b-0"/>
<connection from="89ced-0-re" to="3047b-0-re"/>
<connection from="10010-0" to="3047b-0"/>
<connection from="10010-0" to="3047b-0-re"/>
<connection from="10010-0-re" to="3047b-0"/>
<connection from="10010-0-re" to="3047b-0-re"/>
<connection from="3047b-0" to="89ced-0"/>
<connection from="3047b-0" to="10010-0"/>
<connection from="3047b-0" to="89ced-0-re"/>
<connection from="3047b-0" to="10010-0-re"/>
<connection from="3047b-0-re" to="89ced-0"/>
<connection from="3047b-0-re" to="10010-0"/>
<connection from="3047b-0-re" to="89ced-0-re"/>
<connection from="3047b-0-re" to="10010-0-re"/>
<!-- Point 2e0fc e978a505-0d02-4853-aa74-3a291522e0fc -->
<connection from="b6bb8-0" to="6e41e-0"/>
<connection from="b6bb8-0" to="6e41e-0-re"/>
<connection from="b6bb8-0-re" to="6e41e-0"/>
<connection from="b6bb8-0-re" to="6e41e-0-re"/>
<connection from="4cd12-0" to="6e41e-0"/>
<connection from="4cd12-0" to="6e41e-0-re"/>
<connection from="4cd12-0-re" to="6e41e-0"/>
<connection from="4cd12-0-re" to="6e41e-0-re"/>
<connection from="6e41e-0" to="b6bb8-0"/>
<connection from="6e41e-0" to="4cd12-0"/>
<connection from="6e41e-0" to="b6bb8-0-re"/>
<connection from="6e41e-0" to="4cd12-0-re"/>
<connection from="6e41e-0-re" to="b6bb8-0"/>
<connection from="6e41e-0-re" to="4cd12-0"/>
<connection from="6e41e-0-re" to="b6bb8-0-re"/>
<connection from="6e41e-0-re" to="4cd12-0-re"/>
<!-- Point ad632 5e61d8c1-2f4f-4031-9d56-1ac6d4cad632 -->
<connection from="ad6d2-0" to="fd8c1-0"/>
<connection from="ad6d2-0" to="fd8c1-0-re"/>
<connection from="ad6d2-0-re" to="fd8c1-0"/>
<connection from="ad6d2-0-re" to="fd8c1-0-re"/>
<connection from="4af18-0" to="fd8c1-0"/>
<connection from="4af18-0" to="fd8c1-0-re"/>
<connection from="4af18-0-re" to="fd8c1-0"/>
<connection from="4af18-0-re" to="fd8c1-0-re"/>
<connection from="fd8c1-0" to="ad6d2-0"/>
<connection from="fd8c1-0" to="4af18-0"/>
<connection from="fd8c1-0" to="ad6d2-0-re"/>
<connection from="fd8c1-0" to="4af18-0-re"/>
<connection from="fd8c1-0-re" to="ad6d2-0"/>
<connection from="fd8c1-0-re" to="4af18-0"/>
<connection from="fd8c1-0-re" to="ad6d2-0-re"/>
<connection from="fd8c1-0-re" to="4af18-0-re"/>
<!-- Point e660c 645d988b-6bee-41a3-a52b-4d8f0e0e660c -->
<connection from="52a54-0" to="4af18-0"/>
<connection from="52a54-0" to="4af18-0-re"/>
<connection from="52a54-0-re" to="4af18-0"/>
<connection from="52a54-0-re" to="4af18-0-re"/>
<connection from="424a0-0" to="4af18-0"/>
<connection from="424a0-0" to="4af18-0-re"/>
<connection from="424a0-0-re" to="4af18-0"/>
<connection from="424a0-0-re" to="4af18-0-re"/>
<connection from="4af18-0" to="52a54-0"/>
<connection from="4af18-0" to="424a0-0"/>
<connection from="4af18-0" to="52a54-0-re"/>
<connection from="4af18-0" to="424a0-0-re"/>
<connection from="4af18-0-re" to="52a54-0"/>
<connection from="4af18-0-re" to="424a0-0"/>
<connection from="4af18-0-re" to="52a54-0-re"/>
<connection from="4af18-0-re" to="424a0-0-re"/>
<!-- Point cebb5 ed321bb1-e629-4392-bcd0-a734f5acebb5 -->
<connection from="ad41e-0" to="28e2b-0"/>
<connection from="ad41e-0" to="28e2b-0-re"/>
<connection from="ad41e-0-re" to="28e2b-0"/>
<connection from="ad41e-0-re" to="28e2b-0-re"/>
<connection from="424a0-0" to="28e2b-0"/>
<connection from="424a0-0" to="28e2b-0-re"/>
<connection from="424a0-0-re" to="28e2b-0"/>
<connection from="424a0-0-re" to="28e2b-0-re"/>
<connection from="28e2b-0" to="ad41e-0"/>
<connection from="28e2b-0" to="424a0-0"/>
<connection from="28e2b-0" to="ad41e-0-re"/>
<connection from="28e2b-0" to="424a0-0-re"/>
<connection from="28e2b-0-re" to="ad41e-0"/>
<connection from="28e2b-0-re" to="424a0-0"/>
<connection from="28e2b-0-re" to="ad41e-0-re"/>
<connection from="28e2b-0-re" to="424a0-0-re"/>
<!-- Point 568c6 1cb77035-714e-46d3-84ce-79999e5568c6 -->
<connection from="28e2b-0" to="60c9c-0"/>
<connection from="28e2b-0" to="60c9c-0-re"/>
<connection from="28e2b-0-re" to="60c9c-0"/>
<connection from="28e2b-0-re" to="60c9c-0-re"/>
<connection from="d923a-0" to="60c9c-0"/>
<connection from="d923a-0" to="60c9c-0-re"/>
<connection from="d923a-0-re" to="60c9c-0"/>
<connection from="d923a-0-re" to="60c9c-0-re"/>
<connection from="60c9c-0" to="28e2b-0"/>
<connection from="60c9c-0" to="d923a-0"/>
<connection from="60c9c-0" to="28e2b-0-re"/>
<connection from="60c9c-0" to="d923a-0-re"/>
<connection from="60c9c-0-re" to="28e2b-0"/>
<connection from="60c9c-0-re" to="d923a-0"/>
<connection from="60c9c-0-re" to="28e2b-0-re"/>
<connection from="60c9c-0-re" to="d923a-0-re"/>
<!-- Point 8a09c d6489a76-11a5-468f-9568-eea21628a09c -->
<connection from="60c9c-0" to="f6bae-0"/>
<connection from="60c9c-0" to="f6bae-0-re"/>
<connection from="60c9c-0-re" to="f6bae-0"/>
<connection from="60c9c-0-re" to="f6bae-0-re"/>
<connection from="e18bc-0" to="f6bae-0"/>
<connection from="e18bc-0" to="f6bae-0-re"/>
<connection from="e18bc-0-re" to="f6bae-0"/>
<connection from="e18bc-0-re" to="f6bae-0-re"/>
<connection from="f6bae-0" to="60c9c-0"/>
<connection from="f6bae-0" to="e18bc-0"/>
<connection from="f6bae-0" to="60c9c-0-re"/>
<connection from="f6bae-0" to="e18bc-0-re"/>
<connection from="f6bae-0-re" to="60c9c-0"/>
<connection from="f6bae-0-re" to="e18bc-0"/>
<connection from="f6bae-0-re" to="60c9c-0-re"/>
<connection from="f6bae-0-re" to="e18bc-0-re"/>
<!-- Point ff6cd 8b885579-4304-42ff-8e1f-01c0524ff6cd -->
<connection from="e3c95-0" to="f6bae-0"/>
<connection from="e3c95-0" to="f6bae-0-re"/>
<connection from="e3c95-0-re" to="f6bae-0"/>
<connection from="e3c95-0-re" to="f6bae-0-re"/>
<connection from="c46ee-0" to="f6bae-0"/>
<connection from="c46ee-0" to="f6bae-0-re"/>
<connection from="c46ee-0-re" to="f6bae-0"/>
<connection from="c46ee-0-re" to="f6bae-0-re"/>
<connection from="f6bae-0" to="e3c95-0"/>
<connection from="f6bae-0" to="c46ee-0"/>
<connection from="f6bae-0" to="e3c95-0-re"/>
<connection from="f6bae-0" to="c46ee-0-re"/>
<connection from="f6bae-0-re" to="e3c95-0"/>
<connection from="f6bae-0-re" to="c46ee-0"/>
<connection from="f6bae-0-re" to="e3c95-0-re"/>
<connection from="f6bae-0-re" to="c46ee-0-re"/>
<!-- Point 46bf9 37ba77cc-1098-4e78-b6a2-62924c646bf9 -->
<connection from="4c9f5-0" to="341f8-0"/>
<connection from="4c9f5-0" to="341f8-0-re"/>
<connection from="4c9f5-0-re" to="341f8-0"/>
<connection from="4c9f5-0-re" to="341f8-0-re"/>
<connection from="c46ee-0" to="341f8-0"/>
<connection from="c46ee-0" to="341f8-0-re"/>
<connection from="c46ee-0-re" to="341f8-0"/>
<connection from="c46ee-0-re" to="341f8-0-re"/>
<connection from="341f8-0" to="4c9f5-0"/>
<connection from="341f8-0" to="c46ee-0"/>
<connection from="341f8-0" to="4c9f5-0-re"/>
<connection from="341f8-0" to="c46ee-0-re"/>
<connection from="341f8-0-re" to="4c9f5-0"/>
<connection from="341f8-0-re" to="c46ee-0"/>
<connection from="341f8-0-re" to="4c9f5-0-re"/>
<connection from="341f8-0-re" to="c46ee-0-re"/>

<!-- Point fdae0 2e8cab0e-4a67-4e13-ab8b-0a0767afdae0 -->
<connection from="f8846-0" to="d6957-0"/>
<connection from="f8846-0" to="d6957-0-re"/>
<connection from="f8846-0-re" to="d6957-0"/>
<connection from="f8846-0-re" to="d6957-0-re"/>
<connection from="8e774-0" to="d6957-0"/>
<connection from="8e774-0" to="d6957-0-re"/>
<connection from="8e774-0-re" to="d6957-0"/>
<connection from="8e774-0-re" to="d6957-0-re"/>
<connection from="d6957-0" to="f8846-0"/>
<connection from="d6957-0" to="8e774-0"/>
<connection from="d6957-0" to="f8846-0-re"/>
<connection from="d6957-0" to="8e774-0-re"/>
<connection from="d6957-0-re" to="f8846-0"/>
<connection from="d6957-0-re" to="8e774-0"/>
<connection from="d6957-0-re" to="f8846-0-re"/>
<connection from="d6957-0-re" to="8e774-0-re"/>
<!-- Point ec07c 40a4a6b8-3fa3-4b12-8f9e-0195823ec07c -->
<connection from="f8846-0" to="c391d-0"/>
<connection from="f8846-0" to="c391d-0-re"/>
<connection from="f8846-0-re" to="c391d-0"/>
<connection from="f8846-0-re" to="c391d-0-re"/>
<connection from="565a2-0" to="c391d-0"/>
<connection from="565a2-0" to="c391d-0-re"/>
<connection from="565a2-0-re" to="c391d-0"/>
<connection from="565a2-0-re" to="c391d-0-re"/>
<connection from="c391d-0" to="f8846-0"/>
<connection from="c391d-0" to="565a2-0"/>
<connection from="c391d-0" to="f8846-0-re"/>
<connection from="c391d-0" to="565a2-0-re"/>
<connection from="c391d-0-re" to="f8846-0"/>
<connection from="c391d-0-re" to="565a2-0"/>
<connection from="c391d-0-re" to="f8846-0-re"/>
<connection from="c391d-0-re" to="565a2-0-re"/>
<!-- Point 859f9 a4f69a6c-81cf-46bd-b63c-c63e8fe859f9 -->
<connection from="ebbf1-0" to="c391d-0"/>
<connection from="ebbf1-0" to="c391d-0-re"/>
<connection from="ebbf1-0-re" to="c391d-0"/>
<connection from="ebbf1-0-re" to="c391d-0-re"/>
<connection from="fcebc-0" to="c391d-0"/>
<connection from="fcebc-0" to="c391d-0-re"/>
<connection from="fcebc-0-re" to="c391d-0"/>
<connection from="fcebc-0-re" to="c391d-0-re"/>
<connection from="c391d-0" to="ebbf1-0"/>
<connection from="c391d-0" to="fcebc-0"/>
<connection from="c391d-0" to="ebbf1-0-re"/>
<connection from="c391d-0" to="fcebc-0-re"/>
<connection from="c391d-0-re" to="ebbf1-0"/>
<connection from="c391d-0-re" to="fcebc-0"/>
<connection from="c391d-0-re" to="ebbf1-0-re"/>
<connection from="c391d-0-re" to="fcebc-0-re"/>
<!-- Point f92b7 65143227-c586-4a50-b2c0-0a71e0ff92b7 -->
<connection from="c3cd6-0" to="9c0c0-0"/>
<connection from="c3cd6-0" to="9c0c0-0-re"/>
<connection from="c3cd6-0-re" to="9c0c0-0"/>
<connection from="c3cd6-0-re" to="9c0c0-0-re"/>
<connection from="8dbcf-0" to="9c0c0-0"/>
<connection from="8dbcf-0" to="9c0c0-0-re"/>
<connection from="8dbcf-0-re" to="9c0c0-0"/>
<connection from="8dbcf-0-re" to="9c0c0-0-re"/>
<connection from="9c0c0-0" to="c3cd6-0"/>
<connection from="9c0c0-0" to="8dbcf-0"/>
<connection from="9c0c0-0" to="c3cd6-0-re"/>
<connection from="9c0c0-0" to="8dbcf-0-re"/>
<connection from="9c0c0-0-re" to="c3cd6-0"/>
<connection from="9c0c0-0-re" to="8dbcf-0"/>
<connection from="9c0c0-0-re" to="c3cd6-0-re"/>
<connection from="9c0c0-0-re" to="8dbcf-0-re"/>
<!-- Point a531a 72a4caf1-d150-4045-85ad-c555caba531a -->
<connection from="4c60a-0" to="3047b-0"/>
<connection from="4c60a-0" to="3047b-0-re"/>
<connection from="4c60a-0-re" to="3047b-0"/>
<connection from="4c60a-0-re" to="3047b-0-re"/>
<connection from="71f82-0" to="3047b-0"/>
<connection from="71f82-0" to="3047b-0-re"/>
<connection from="71f82-0-re" to="3047b-0"/>
<connection from="71f82-0-re" to="3047b-0-re"/>
<connection from="3047b-0" to="4c60a-0"/>
<connection from="3047b-0" to="71f82-0"/>
<connection from="3047b-0" to="4c60a-0-re"/>
<connection from="3047b-0" to="71f82-0-re"/>
<connection from="3047b-0-re" to="4c60a-0"/>
<connection from="3047b-0-re" to="71f82-0"/>
<connection from="3047b-0-re" to="4c60a-0-re"/>
<connection from="3047b-0-re" to="71f82-0-re"/>
<!-- Point db26e b8297d2a-0909-486b-b971-7d32f7ddb26e -->
<connection from="72969-0" to="397f8-0"/>
<connection from="72969-0" to="397f8-0-re"/>
<connection from="72969-0-re" to="397f8-0"/>
<connection from="72969-0-re" to="397f8-0-re"/>
<connection from="4c60a-0" to="397f8-0"/>
<connection from="4c60a-0" to="397f8-0-re"/>
<connection from="4c60a-0-re" to="397f8-0"/>
<connection from="4c60a-0-re" to="397f8-0-re"/>
<connection from="397f8-0" to="72969-0"/>
<connection from="397f8-0" to="4c60a-0"/>
<connection from="397f8-0" to="72969-0-re"/>
<connection from="397f8-0" to="4c60a-0-re"/>
<connection from="397f8-0-re" to="72969-0"/>
<connection from="397f8-0-re" to="4c60a-0"/>
<connection from="397f8-0-re" to="72969-0-re"/>
<connection from="397f8-0-re" to="4c60a-0-re"/>
<!-- Point 7ce72 82c7745b-53a5-49a8-9862-640421a7ce72 -->
<connection from="8ec57-0" to="397f8-0"/>
<connection from="8ec57-0" to="397f8-0-re"/>
<connection from="8ec57-0-re" to="397f8-0"/>
<connection from="8ec57-0-re" to="397f8-0-re"/>
<connection from="5582a-0" to="397f8-0"/>
<connection from="5582a-0" to="397f8-0-re"/>
<connection from="5582a-0-re" to="397f8-0"/>
<connection from="5582a-0-re" to="397f8-0-re"/>
<connection from="397f8-0" to="8ec57-0"/>
<connection from="397f8-0" to="5582a-0"/>
<connection from="397f8-0" to="8ec57-0-re"/>
<connection from="397f8-0" to="5582a-0-re"/>
<connection from="397f8-0-re" to="8ec57-0"/>
<connection from="397f8-0-re" to="5582a-0"/>
<connection from="397f8-0-re" to="8ec57-0-re"/>
<connection from="397f8-0-re" to="5582a-0-re"/>
<!-- Point 94186 b7658eb8-886a-470c-9b58-a0443dd94186 -->
<connection from="5582a-0" to="6e41e-0"/>
<connection from="5582a-0" to="6e41e-0-re"/>
<connection from="5582a-0-re" to="6e41e-0"/>
<connection from="5582a-0-re" to="6e41e-0-re"/>
<connection from="77a1f-0" to="6e41e-0"/>
<connection from="77a1f-0" to="6e41e-0-re"/>
<connection from="77a1f-0-re" to="6e41e-0"/>
<connection from="77a1f-0-re" to="6e41e-0-re"/>
<connection from="6e41e-0" to="5582a-0"/>
<connection from="6e41e-0" to="77a1f-0"/>
<connection from="6e41e-0" to="5582a-0-re"/>
<connection from="6e41e-0" to="77a1f-0-re"/>
<connection from="6e41e-0-re" to="5582a-0"/>
<connection from="6e41e-0-re" to="77a1f-0"/>
<connection from="6e41e-0-re" to="5582a-0-re"/>
<connection from="6e41e-0-re" to="77a1f-0-re"/>
<!-- Point 96023 bfed6421-4923-4d65-9be4-02f108996023 -->
<connection from="9c0c0-0" to="a6a4d-0"/>
<connection from="9c0c0-0" to="a6a4d-0-re"/>
<connection from="9c0c0-0-re" to="a6a4d-0"/>
<connection from="9c0c0-0-re" to="a6a4d-0-re"/>
<connection from="7c2f3-0" to="a6a4d-0"/>
<connection from="7c2f3-0" to="a6a4d-0-re"/>
<connection from="7c2f3-0-re" to="a6a4d-0"/>
<connection from="7c2f3-0-re" to="a6a4d-0-re"/>
<connection from="a6a4d-0" to="9c0c0-0"/>
<connection from="a6a4d-0" to="7c2f3-0"/>
<connection from="a6a4d-0" to="9c0c0-0-re"/>
<connection from="a6a4d-0" to="7c2f3-0-re"/>
<connection from="a6a4d-0-re" to="9c0c0-0"/>
<connection from="a6a4d-0-re" to="7c2f3-0"/>
<connection from="a6a4d-0-re" to="9c0c0-0-re"/>
<connection from="a6a4d-0-re" to="7c2f3-0-re"/>

<!-- Point 4cb3d 692921a5-28df-4f4c-9c61-7b9b4de4cb3d -->
<connection from="ffb20-0" to="86fca-0"/>
<connection from="ffb20-0" to="86fca-0-re"/>
<connection from="ffb20-0-re" to="86fca-0"/>
<connection from="ffb20-0-re" to="86fca-0-re"/>
<connection from="b6ddc-0" to="86fca-0"/>
<connection from="b6ddc-0" to="86fca-0-re"/>
<connection from="b6ddc-0-re" to="86fca-0"/>
<connection from="b6ddc-0-re" to="86fca-0-re"/>
<connection from="86fca-0" to="ffb20-0"/>
<connection from="86fca-0" to="b6ddc-0"/>
<connection from="86fca-0" to="ffb20-0-re"/>
<connection from="86fca-0" to="b6ddc-0-re"/>
<connection from="86fca-0-re" to="ffb20-0"/>
<connection from="86fca-0-re" to="b6ddc-0"/>
<connection from="86fca-0-re" to="ffb20-0-re"/>
<connection from="86fca-0-re" to="b6ddc-0-re"/>

<!-- Point 6f79e 0aa1e796-5146-4664-a868-6036b966f79e -->
<connection from="86fca-0" to="0a935-0"/>
<connection from="86fca-0" to="0a935-0-re"/>
<connection from="86fca-0-re" to="0a935-0"/>
<connection from="86fca-0-re" to="0a935-0-re"/>
<connection from="1716b-0" to="0a935-0"/>
<connection from="1716b-0" to="0a935-0-re"/>
<connection from="1716b-0-re" to="0a935-0"/>
<connection from="1716b-0-re" to="0a935-0-re"/>
<connection from="0a935-0" to="86fca-0"/>
<connection from="0a935-0" to="1716b-0"/>
<connection from="0a935-0" to="86fca-0-re"/>
<connection from="0a935-0" to="1716b-0-re"/>
<connection from="0a935-0-re" to="86fca-0"/>
<connection from="0a935-0-re" to="1716b-0"/>
<connection from="0a935-0-re" to="86fca-0-re"/>
<connection from="0a935-0-re" to="1716b-0-re"/>
<!-- Point 24da9 aa0409e7-b594-4cf7-99e8-0df348624da9 -->
<connection from="39a7e-0" to="13456-0"/>
<connection from="39a7e-0" to="13456-0-re"/>
<connection from="39a7e-0-re" to="13456-0"/>
<connection from="39a7e-0-re" to="13456-0-re"/>
<connection from="0a935-0" to="13456-0"/>
<connection from="0a935-0" to="13456-0-re"/>
<connection from="0a935-0-re" to="13456-0"/>
<connection from="0a935-0-re" to="13456-0-re"/>
<connection from="13456-0" to="39a7e-0"/>
<connection from="13456-0" to="0a935-0"/>
<connection from="13456-0" to="39a7e-0-re"/>
<connection from="13456-0" to="0a935-0-re"/>
<connection from="13456-0-re" to="39a7e-0"/>
<connection from="13456-0-re" to="0a935-0"/>
<connection from="13456-0-re" to="39a7e-0-re"/>
<connection from="13456-0-re" to="0a935-0-re"/>
<!-- Point 40760 640f9e19-8feb-474b-adad-fd0a09f40760 -->
<connection from="51baf-0" to="13456-0"/>
<connection from="51baf-0" to="13456-0-re"/>
<connection from="51baf-0-re" to="13456-0"/>
<connection from="51baf-0-re" to="13456-0-re"/>
<connection from="e0eb6-0" to="13456-0"/>
<connection from="e0eb6-0" to="13456-0-re"/>
<connection from="e0eb6-0-re" to="13456-0"/>
<connection from="e0eb6-0-re" to="13456-0-re"/>
<connection from="13456-0" to="51baf-0"/>
<connection from="13456-0" to="e0eb6-0"/>
<connection from="13456-0" to="51baf-0-re"/>
<connection from="13456-0" to="e0eb6-0-re"/>
<connection from="13456-0-re" to="51baf-0"/>
<connection from="13456-0-re" to="e0eb6-0"/>
<connection from="13456-0-re" to="51baf-0-re"/>
<connection from="13456-0-re" to="e0eb6-0-re"/>
<!-- Point eb7c5 071b68f9-794a-4190-ab58-568e6f5eb7c5 -->
<connection from="38f8f-0" to="d6cbc-0"/>
<connection from="38f8f-0" to="d6cbc-0-re"/>
<connection from="38f8f-0-re" to="d6cbc-0"/>
<connection from="38f8f-0-re" to="d6cbc-0-re"/>
<connection from="51baf-0" to="d6cbc-0"/>
<connection from="51baf-0" to="d6cbc-0-re"/>
<connection from="51baf-0-re" to="d6cbc-0"/>
<connection from="51baf-0-re" to="d6cbc-0-re"/>
<connection from="d6cbc-0" to="38f8f-0"/>
<connection from="d6cbc-0" to="51baf-0"/>
<connection from="d6cbc-0" to="38f8f-0-re"/>
<connection from="d6cbc-0" to="51baf-0-re"/>
<connection from="d6cbc-0-re" to="38f8f-0"/>
<connection from="d6cbc-0-re" to="51baf-0"/>
<connection from="d6cbc-0-re" to="38f8f-0-re"/>
<connection from="d6cbc-0-re" to="51baf-0-re"/>
<!-- Point 53c66 408d53ef-03cd-42c0-9430-289e2c053c66 -->
<connection from="21e21-0" to="d6cbc-0"/>
<connection from="21e21-0" to="d6cbc-0-re"/>
<connection from="21e21-0-re" to="d6cbc-0"/>
<connection from="21e21-0-re" to="d6cbc-0-re"/>
<connection from="01825-0" to="d6cbc-0"/>
<connection from="01825-0" to="d6cbc-0-re"/>
<connection from="01825-0-re" to="d6cbc-0"/>
<connection from="01825-0-re" to="d6cbc-0-re"/>
<connection from="d6cbc-0" to="21e21-0"/>
<connection from="d6cbc-0" to="01825-0"/>
<connection from="d6cbc-0" to="21e21-0-re"/>
<connection from="d6cbc-0" to="01825-0-re"/>
<connection from="d6cbc-0-re" to="21e21-0"/>
<connection from="d6cbc-0-re" to="01825-0"/>
<connection from="d6cbc-0-re" to="21e21-0-re"/>
<connection from="d6cbc-0-re" to="01825-0-re"/>
<!-- Point ec898 ce7c5ea7-455c-4485-be7e-7d84767ec898 -->
<connection from="8d89c-0" to="f39c1-0"/>
<connection from="8d89c-0" to="f39c1-0-re"/>
<connection from="8d89c-0-re" to="f39c1-0"/>
<connection from="8d89c-0-re" to="f39c1-0-re"/>
<connection from="21e21-0" to="f39c1-0"/>
<connection from="21e21-0" to="f39c1-0-re"/>
<connection from="21e21-0-re" to="f39c1-0"/>
<connection from="21e21-0-re" to="f39c1-0-re"/>
<connection from="f39c1-0" to="8d89c-0"/>
<connection from="f39c1-0" to="21e21-0"/>
<connection from="f39c1-0" to="8d89c-0-re"/>
<connection from="f39c1-0" to="21e21-0-re"/>
<connection from="f39c1-0-re" to="8d89c-0"/>
<connection from="f39c1-0-re" to="21e21-0"/>
<connection from="f39c1-0-re" to="8d89c-0-re"/>
<connection from="f39c1-0-re" to="21e21-0-re"/>
<!-- Point 3e240 311bf4bd-f3ff-4064-a105-0ab70ee3e240 -->
<connection from="f39c1-0" to="a5b2c-0"/>
<connection from="f39c1-0" to="a5b2c-0-re"/>
<connection from="f39c1-0-re" to="a5b2c-0"/>
<connection from="f39c1-0-re" to="a5b2c-0-re"/>
<connection from="e39e9-0" to="a5b2c-0"/>
<connection from="e39e9-0" to="a5b2c-0-re"/>
<connection from="e39e9-0-re" to="a5b2c-0"/>
<connection from="e39e9-0-re" to="a5b2c-0-re"/>
<connection from="a5b2c-0" to="f39c1-0"/>
<connection from="a5b2c-0" to="e39e9-0"/>
<connection from="a5b2c-0" to="f39c1-0-re"/>
<connection from="a5b2c-0" to="e39e9-0-re"/>
<connection from="a5b2c-0-re" to="f39c1-0"/>
<connection from="a5b2c-0-re" to="e39e9-0"/>
<connection from="a5b2c-0-re" to="f39c1-0-re"/>
<connection from="a5b2c-0-re" to="e39e9-0-re"/>
<!-- Point df0cb cd714113-e06c-40db-9610-2c3342edf0cb -->
<connection from="364db-0" to="b6c5b-0"/>
<connection from="364db-0" to="b6c5b-0-re"/>
<connection from="364db-0-re" to="b6c5b-0"/>
<connection from="364db-0-re" to="b6c5b-0-re"/>
<connection from="bacf9-0" to="b6c5b-0"/>
<connection from="bacf9-0" to="b6c5b-0-re"/>
<connection from="bacf9-0-re" to="b6c5b-0"/>
<connection from="bacf9-0-re" to="b6c5b-0-re"/>
<connection from="b6c5b-0" to="364db-0"/>
<connection from="b6c5b-0" to="bacf9-0"/>
<connection from="b6c5b-0" to="364db-0-re"/>
<connection from="b6c5b-0" to="bacf9-0-re"/>
<connection from="b6c5b-0-re" to="364db-0"/>
<connection from="b6c5b-0-re" to="bacf9-0"/>
<connection from="b6c5b-0-re" to="364db-0-re"/>
<connection from="b6c5b-0-re" to="bacf9-0-re"/>
<!-- Point 53759 1beb1580-2635-4659-a42c-505728b53759 -->
<connection from="364db-0" to="db34c-0"/>
<connection from="364db-0" to="db34c-0-re"/>
<connection from="364db-0-re" to="db34c-0"/>
<connection from="364db-0-re" to="db34c-0-re"/>
<connection from="5eda3-0" to="db34c-0"/>
<connection from="5eda3-0" to="db34c-0-re"/>
<connection from="5eda3-0-re" to="db34c-0"/>
<connection from="5eda3-0-re" to="db34c-0-re"/>
<connection from="db34c-0" to="364db-0"/>
<connection from="db34c-0" to="5eda3-0"/>
<connection from="db34c-0" to="364db-0-re"/>
<connection from="db34c-0" to="5eda3-0-re"/>
<connection from="db34c-0-re" to="364db-0"/>
<connection from="db34c-0-re" to="5eda3-0"/>
<connection from="db34c-0-re" to="364db-0-re"/>
<connection from="db34c-0-re" to="5eda3-0-re"/>
<!-- Point 02f39 a5981b1c-1217-4cc8-976c-1cd13a502f39 -->
<connection from="8ec57-0" to="db34c-0"/>
<connection from="8ec57-0" to="db34c-0-re"/>
<connection from="8ec57-0-re" to="db34c-0"/>
<connection from="8ec57-0-re" to="db34c-0-re"/>
<connection from="2f68a-0" to="db34c-0"/>
<connection from="2f68a-0" to="db34c-0-re"/>
<connection from="2f68a-0-re" to="db34c-0"/>
<connection from="2f68a-0-re" to="db34c-0-re"/>
<connection from="db34c-0" to="8ec57-0"/>
<connection from="db34c-0" to="2f68a-0"/>
<connection from="db34c-0" to="8ec57-0-re"/>
<connection from="db34c-0" to="2f68a-0-re"/>
<connection from="db34c-0-re" to="8ec57-0"/>
<connection from="db34c-0-re" to="2f68a-0"/>
<connection from="db34c-0-re" to="8ec57-0-re"/>
<connection from="db34c-0-re" to="2f68a-0-re"/>
<!-- Point 9985e b1c1043e-c4d7-4a52-869e-b818c999985e -->
<connection from="330ef-0" to="2f68a-0"/>
<connection from="330ef-0" to="2f68a-0-re"/>
<connection from="330ef-0-re" to="2f68a-0"/>
<connection from="330ef-0-re" to="2f68a-0-re"/>
<connection from="53c5f-0" to="2f68a-0"/>
<connection from="53c5f-0" to="2f68a-0-re"/>
<connection from="53c5f-0-re" to="2f68a-0"/>
<connection from="53c5f-0-re" to="2f68a-0-re"/>
<connection from="2f68a-0" to="330ef-0"/>
<connection from="2f68a-0" to="53c5f-0"/>
<connection from="2f68a-0" to="330ef-0-re"/>
<connection from="2f68a-0" to="53c5f-0-re"/>
<connection from="2f68a-0-re" to="330ef-0"/>
<connection from="2f68a-0-re" to="53c5f-0"/>
<connection from="2f68a-0-re" to="330ef-0-re"/>
<connection from="2f68a-0-re" to="53c5f-0-re"/>
<!-- Point 98765 4a6f1c90-0a26-4115-9df5-2b3c92598765 -->
<connection from="38f8f-0" to="71d44-0"/>
<connection from="38f8f-0" to="71d44-0-re"/>
<connection from="38f8f-0-re" to="71d44-0"/>
<connection from="38f8f-0-re" to="71d44-0-re"/>
<connection from="e8bd2-0" to="71d44-0"/>
<connection from="e8bd2-0" to="71d44-0-re"/>
<connection from="e8bd2-0-re" to="71d44-0"/>
<connection from="e8bd2-0-re" to="71d44-0-re"/>
<connection from="71d44-0" to="38f8f-0"/>
<connection from="71d44-0" to="e8bd2-0"/>
<connection from="71d44-0" to="38f8f-0-re"/>
<connection from="71d44-0" to="e8bd2-0-re"/>
<connection from="71d44-0-re" to="38f8f-0"/>
<connection from="71d44-0-re" to="e8bd2-0"/>
<connection from="71d44-0-re" to="38f8f-0-re"/>
<connection from="71d44-0-re" to="e8bd2-0-re"/>
<!-- Point ddc72 3c5bc380-5215-4ce8-b1f2-1b767f7ddc72 -->
<connection from="81ef6-0" to="71d44-0"/>
<connection from="81ef6-0" to="71d44-0-re"/>
<connection from="81ef6-0-re" to="71d44-0"/>
<connection from="81ef6-0-re" to="71d44-0-re"/>
<connection from="e0eb6-0" to="71d44-0"/>
<connection from="e0eb6-0" to="71d44-0-re"/>
<connection from="e0eb6-0-re" to="71d44-0"/>
<connection from="e0eb6-0-re" to="71d44-0-re"/>
<connection from="71d44-0" to="81ef6-0"/>
<connection from="71d44-0" to="e0eb6-0"/>
<connection from="71d44-0" to="81ef6-0-re"/>
<connection from="71d44-0" to="e0eb6-0-re"/>
<connection from="71d44-0-re" to="81ef6-0"/>
<connection from="71d44-0-re" to="e0eb6-0"/>
<connection from="71d44-0-re" to="81ef6-0-re"/>
<connection from="71d44-0-re" to="e0eb6-0-re"/>
<!-- Point 14852 c9634dad-f002-41c9-9117-c95b9cd14852 -->
<connection from="19aa8-0" to="d2741-0"/>
<connection from="19aa8-0" to="d2741-0-re"/>
<connection from="19aa8-0-re" to="d2741-0"/>
<connection from="19aa8-0-re" to="d2741-0-re"/>
<connection from="8b195-0" to="d2741-0"/>
<connection from="8b195-0" to="d2741-0-re"/>
<connection from="8b195-0-re" to="d2741-0"/>
<connection from="8b195-0-re" to="d2741-0-re"/>
<connection from="d2741-0" to="19aa8-0"/>
<connection from="d2741-0" to="8b195-0"/>
<connection from="d2741-0" to="19aa8-0-re"/>
<connection from="d2741-0" to="8b195-0-re"/>
<connection from="d2741-0-re" to="19aa8-0"/>
<connection from="d2741-0-re" to="8b195-0"/>
<connection from="d2741-0-re" to="19aa8-0-re"/>
<connection from="d2741-0-re" to="8b195-0-re"/>
<!-- Point a54e8 be3aab1a-3e0d-4faa-9989-98ee5c1a54e8 -->
<connection from="f2a05-0" to="9b47a-0"/>
<connection from="f2a05-0" to="9b47a-0-re"/>
<connection from="f2a05-0-re" to="9b47a-0"/>
<connection from="f2a05-0-re" to="9b47a-0-re"/>
<connection from="8b195-0" to="9b47a-0"/>
<connection from="8b195-0" to="9b47a-0-re"/>
<connection from="8b195-0-re" to="9b47a-0"/>
<connection from="8b195-0-re" to="9b47a-0-re"/>