<nodes>
<node id="8d3bd" x="-2502198.12597" y="3467432.6135300007" type="priority"/>
<node id="3b39f" x="-2502011.2665299997" y="3467395.2331499998" type="priority"/>
<node id="e6bdd" x="-2501206.74259" y="3467286.4816500004" type="priority"/>
<node id="ae0c1" x="-2501015.8400600003" y="3467247.873880001" type="priority"/>
<node id="0a0d4" x="-2498540.54764" y="3466763.4935800005" type="priority"/>
<node id="92649" x="-2498268.72423" y="3466698.8420899995" type="priority"/>
<node id="2e0fc" x="-2497040.4622299997" y="3464885.77458" type="priority"/>
<node id="ad632" x="-2496162.36355" y="3464067.9474400003" type="priority"/>
<node id="e660c" x="-2496131.91341" y="3464011.2853200007" type="priority"/>
<node id="cebb5" x="-2495593.77887" y="3463048.5656199995" type="priority"/>
<node id="568c6" x="-2495572.8213400003" y="3463024.2260299996" type="priority"/>
<node id="8a09c" x="-2495551.4765999997" y="3462986.0530600008" type="priority"/>
<node id="ff6cd" x="-2495318.0454" y="3462566.56484" type="priority"/>
<node id="46bf9" x="-2495275.3629099997" y="3462471.4147699997" type="priority"/>
<node id="527b2" x="-2503676.4045200003" y="3464880.5900599994" type="priority"/>
<node id="fdae0" x="-2504315.19839" y="3467381.2208900005" type="priority"/>
<node id="ec07c" x="-2502769.90934" y="3467539.5478499997" type="priority"/>
<node id="859f9" x="-2502697.76023" y="3467525.5081900004" type="priority"/>
<node id="f92b7" x="-2502331.08634" y="3465252.72023" type="priority"/>
<node id="a531a" x="-2497083.5450299997" y="3465548.59633" type="priority"/>
<node id="db26e" x="-2497069.4324000003" y="3465359.2512100004" type="priority"/>
<node id="7ce72" x="-2497065.81261" y="3465317.8648099992" type="priority"/>
<node id="94186" x="-2497041.4403999997" y="3464952.8688200004" type="priority"/>
<node id="96023" x="-2496371.0847" y="3462215.15993" type="priority"/>
<node id="a95d9" x="-2500331.6222900003" y="3467665.0683699995" type="priority"/>
<node id="4cb3d" x="-2498930.27734" y="3467393.8571700007" type="priority"/>
<node id="8a40e" x="-2499734.43167" y="3467597.52125" type="priority"/>
<node id="6f79e" x="-2498801.9523799997" y="3467368.355939999" type="priority"/>
<node id="24da9" x="-2498673.67217" y="3467342.9182900004" type="priority"/>
<node id="40760" x="-2498633.76446" y="3467334.75866" type="priority"/>
<node id="eb7c5" x="-2498322.0898700003" y="3467272.36658" type="priority"/>
<node id="53c66" x="-2497075.66672" y="3466204.615700001" type="priority"/>
<node id="ec898" x="-2497061.95131" y="3465998.2454199996" type="priority"/>
<node id="3e240" x="-2497046.6862500003" y="3465886.4259600006" type="priority"/>
<node id="df0cb" x="-2496839.14179" y="3464788.3996200003" type="priority"/>
<node id="53759" x="-2497034.39645" y="3465095.25285" type="priority"/>
<node id="02f39" x="-2497034.47669" y="3465113.873710001" type="priority"/>
<node id="9985e" x="-2497036.89041" y="3465176.5016099997" type="priority"/>
<node id="98765" x="-2498474.02322" y="3467296.3645699993" type="priority"/>
<node id="ddc72" x="-2498502.8837200003" y="3467301.8339099996" type="priority"/>
<node id="14852" x="-2499122.97274" y="3467285.51568" type="priority"/>
<node id="a54e8" x="-2500467.12548" y="3467481.4548000004" type="priority"/>
<node id="383a8" x="-2500621.27961" y="3467522.0177999996" type="priority"/>
<node id="7c6cf" x="-2500688.6975600002" y="3467535.5087400004" type="priority"/>
<node id="d300e" x="-2499058.30621" y="3467298.4471199997" type="priority"/>
<node id="3e6db" x="-2499185.6097999997" y="3467278.682840001" type="priority"/>
<node id="7c7c3" x="-2500527.03651" y="3467513.374709999" type="priority"/>
<node id="78b47" x="-2500794.82873" y="3467557.03087" type="priority"/>
<node id="0f6b1" x="-2497081.37168" y="3466118.7248599995" type="priority"/>
<node id="45187" x="-2497079.51338" y="3466093.0951199997" type="priority"/>
<node id="9a2a8" x="-2497044.27215" y="3465809.05411" type="priority"/>
<node id="be36d" x="-2497031.56707" y="3465228.4608699996" type="priority"/>
<node id="e4d7f" x="-2501328.4789" y="3467357.3175099995" type="priority"/>
<node id="ee317" x="-2501684.7521200003" y="3467394.7215800006" type="priority"/>
<node id="59fdb" x="-2500242.0377700003" y="3467093.765179999" type="priority"/>
<node id="30c77" x="-2500319.68061" y="3467109.52558" type="priority"/>
<node id="bd8d4" x="-2501777.8962399997" y="3467364.0153800007" type="priority"/>
<node id="8f4f2" x="-2501754.26764" y="3467336.96999" type="priority"/>
<node id="103e7" x="-2500035.81523" y="3467033.3977300003" type="priority"/>
<node id="16726" x="-2499987.26069" y="3467020.5960600004" type="priority"/>
<node id="22ca2" x="-2501657.2092" y="3467317.6856200006" type="priority"/>
<node id="c9f50" x="-2498792.8139" y="3466804.06762" type="priority"/>
<node id="3d0c9" x="-2498747.89618" y="3466795.468219999" type="priority"/>
<node id="4c4c7" x="-2498576.53387" y="3466770.6508099996" type="priority"/>
<node id="4ce85" x="-2504532.13578" y="3467134.5772699993" type="priority"/>
<node id="dbdf5" x="-2502942.75788" y="3467580.7814099994" type="priority"/>
<node id="d1fd6" x="-2502538.0035300003" y="3467500.4087799992" type="priority"/>
<node id="3363d" x="-2501238.06836" y="3467195.82739" type="priority"/>
<node id="17a7b" x="-2500086.62012" y="3466993.1047600005" type="priority"/>
<node id="71d0c" x="-2497145.9843800003" y="3466029.3685999997" type="priority"/>
<node id="5277c" x="-2497088.9501799997" y="3465468.28197" type="priority"/>
<node id="1fc64" x="-2497086.71548" y="3465444.6221200004" type="priority"/>
<node id="edc8e" x="-2497048.08977" y="3464789.196489999" type="priority"/>
<node id="bad3a" x="-2501019.44845" y="3467145.352019999" type="priority"/>
<node id="11afb" x="-2500964.01779" y="3467134.3948999997" type="priority"/>
<node id="8782a" x="-2500945.8398" y="3467130.38342" type="priority"/>
<node id="95e2d" x="-2500537.1669" y="3467041.73993" type="priority"/>
<node id="68631" x="-2502140.60759" y="3467009.258269999" type="priority"/>
<node id="c2c5f" x="-2501902.6682700003" y="3467155.39628" type="priority"/>
<node id="85c2b" x="-2501876.69118" y="3467167.9616199993" type="priority"/>
<node id="d67e1" x="-2502296.84345" y="3466985.267449999" type="priority"/>
<node id="9bd1f" x="-2501697.2763400003" y="3467273.44094" type="priority"/>
<node id="34587" x="-2501650.68157" y="3466684.869720001" type="priority"/>
<node id="359b6" x="-2501624.06073" y="3466829.6778999995" type="priority"/>
<node id="050ce" x="-2501680.71387" y="3466373.8661100008" type="priority"/>
<node id="1bf39" x="-2501493.29563" y="3467121.0775799993" type="priority"/>
<node id="ed412" x="-2501744.29" y="3466530.6026600003" type="priority"/>
<node id="47ce9" x="-2501710.3914900003" y="3466704.9391900003" type="priority"/>
<node id="fbbf6" x="-2501529.19018" y="3467101.7202700004" type="priority"/>
<node id="7696f" x="-2501922.0697999997" y="3466567.3958199993" type="priority"/>
<node id="8f73b" x="-2501337.1452200003" y="3467201.3487" type="priority"/>
<node id="e03b6" x="-2501763.68376" y="3466533.93681" type="priority"/>
<node id="2bdd3" x="-2501720.43328" y="3466759.5321900006" type="priority"/>
<node id="a8048" x="-2501712.36094" y="3466804.2715799995" type="priority"/>
<node id="231bb" x="-2501706.88193" y="3466830.9764900003" type="priority"/>
<node id="ff150" x="-2501125.7703299997" y="3467160.1818899997" type="priority"/>
<node id="8af13" x="-2501777.44502" y="3466536.7739899997" type="priority"/>
<node id="0834a" x="-2502264.2091800002" y="3466495.9952099994" type="priority"/>
<node id="bc7c7" x="-2502179.0633300003" y="3466795.7862" type="priority"/>
<node id="63f07" x="-2502426.18147" y="3466630.327129999" type="priority"/>
<node id="1d7c4" x="-2502396.21012" y="3466792.4429100007" type="priority"/>
<node id="09acf" x="-2502347.01175" y="3466997.351020001" type="priority"/>
<node id="069e6" x="-2502196.3080200003" y="3466621.11228" type="priority"/>
<node id="d2d37" x="-2502193.4616400003" y="3466631.6262599993" type="priority"/>
<node id="3fba9" x="-2502143.6217400003" y="3466897.5913699996" type="priority"/>
<node id="64614" x="-2502032.9887699997" y="3467060.3857899997" type="priority"/>
<node id="5a686" x="-2502104.20205" y="3466697.8126599994" type="priority"/>
<node id="d2b93" x="-2502059.85635" y="3466821.65343" type="priority"/>
<node id="9db77" x="-2502175.51345" y="3466423.78682" type="priority"/>
<node id="ba82f" x="-2502115.32995" y="3466748.0320500005" type="priority"/>
<node id="65830" x="-2502101.5800099997" y="3466817.30648" type="priority"/>
<node id="16a66" x="-2501971.20951" y="3467098.5233900007" type="priority"/>
<node id="64763" x="-2501319.76372" y="3466113.17334" type="priority"/>
<node id="cae4d" x="-2500517.83223" y="3465953.21789" type="priority"/>
<node id="60eed" x="-2500494.9040900003" y="3465948.763630001" type="priority"/>
<node id="2cf46" x="-2499245.89989" y="3465699.1646599993" type="priority"/>
<node id="6977b" x="-2499165.49418" y="3465683.0554300006" type="priority"/>
<node id="4b498" x="-2497204.3005" y="3465104.38146" type="priority"/>
<node id="30ae9" x="-2497169.65367" y="3465068.721070001" type="priority"/>
<node id="b8d1f" x="-2497122.5301099997" y="3465020.2126700003" type="priority"/>
<node id="4dd64" x="-2497092.33316" y="3464988.91354" type="priority"/>
<node id="db88f" x="-2502163.11663" y="3466615.9578099996" type="priority"/>
<node id="14ed2" x="-2502146.38028" y="3466692.4377500005" type="priority"/>
<node id="342a5" x="-2502004.11565" y="3467079.2237100005" type="priority"/>
<node id="05f16" x="-2501946.25592" y="3467119.972960001" type="priority"/>
<node id="bb835" x="-2502035.17951" y="3466953.7202499993" type="priority"/>
<node id="09a5b" x="-2502039.67031" y="3466815.5228400007" type="priority"/>
<node id="b37c5" x="-2502415.72564" y="3466534.42622" type="priority"/>
<node id="3f727" x="-2502392.3781000003" y="3466637.4769800007" type="priority"/>
<node id="a7a20" x="-2502366.11308" y="3466506.68007" type="priority"/>
<node id="d435c" x="-2502373.0581900002" y="3466698.882820001" type="priority"/>
<node id="97e1f" x="-2502371.8654899998" y="3466743.870719999" type="priority"/>
<node id="e62e7" x="-2502327.8563900003" y="3467091.0930199996" type="priority"/>
<node id="09017" x="-2502155.4825299997" y="3466418.8656600006" type="priority"/>
<node id="6b7b7" x="-2502120.34828" y="3466610.4782800004" type="priority"/>
<node id="ea9da" x="-2502004.72549" y="3467057.4744700007" type="priority"/>
<node id="81922" x="-2502274.90952" y="3466441.9310500007" type="priority"/>
<node id="a6487" x="-2502241.55301" y="3466610.4527400006" type="priority"/>
<node id="684d0" x="-2502405.61819" y="3466514.8940900005" type="priority"/>
<node id="8d9be" x="-2502382.2487399997" y="3466689.5297" type="priority"/>
<node id="cedd9" x="-2502386.30521" y="3466472.97425" type="priority"/>
<node id="428f7" x="-2502159.18805" y="3466730.4043799993" type="priority"/>
<node id="96f39" x="-2502376.4954899997" y="3466508.543129999" type="priority"/>
<node id="7e3c3" x="-2502134.20519" y="3466318.1411799993" type="priority"/>
<node id="79ed7" x="-2502079.8363699997" y="3466610.67399" type="priority"/>
<node id="0af8c" x="-2501959.7977400003" y="3467093.82807" type="priority"/>
<node id="ff0f7" x="-2501904.649" y="3467149.59482" type="priority"/>
<node id="a0df3" x="-2502175.01345" y="3466617.865529999" type="priority"/>
<node id="2b8db" x="-2502426.26977" y="3466571.6614200007" type="priority"/>
<node id="5322e" x="-2501469.68705" y="3467227.5112299994" type="priority"/>
<node id="511cd" x="-2502075.07674" y="3466742.1292400006" type="priority"/>
<node id="0e89b" x="-2501835.4123" y="3467190.3777300008" type="priority"/>
<node id="d2e9f" x="-2497143.7947199997" y="3465948.7351200003" type="priority"/>
<node id="fb82d" x="-2497132.32205" y="3465853.3458600007" type="priority"/>
<node id="694db" x="-2497399.946" y="3466249.861199999" type="priority"/>
<node id="90e6a" x="-2497149.6490599997" y="3465352.363" type="priority"/>
<node id="534f6" x="-2497133.50878" y="3465689.7527600005" type="priority"/>
<node id="6e713" x="-2499933.4973" y="3466716.87734" type="priority"/>
<node id="60de2" x="-2499791.73008" y="3466680.86943" type="priority"/>
<node id="b4ae7" x="-2499725.52672" y="3466667.6512599997" type="priority"/>
<node id="82407" x="-2500347.1944899997" y="3466792.183839999" type="priority"/>
<node id="ae7c2" x="-2499363.45512" y="3466595.31477" type="priority"/>
<node id="f1158" x="-2499216.1737" y="3466574.0555000007" type="priority"/>
<node id="a3023" x="-2498544.7045799997" y="3466439.44142" type="priority"/>
<node id="d703a" x="-2498790.74627" y="3466488.4442100003" type="priority"/>
<node id="ec4e1" x="-2499373.42956" y="3466605.1823299993" type="priority"/>
<node id="bc3fd" x="-2497205.91522" y="3465266.6628399994" type="priority"/>
<node id="8c31e" x="-2497170.27631" y="3465678.41326" type="priority"/>
<node id="5b9c3" x="-2497450.1151900003" y="3465629.8366199993" type="priority"/>
<node id="5be03" x="-2497203.16457" y="3465406.2082599998" type="priority"/>
<node id="10937" x="-2497219.05023" y="3465210.1170700006" type="priority"/>
<node id="68bff" x="-2499521.2035499997" y="3466030.0827600006" type="priority"/>
<node id="c952c" x="-2499244.9082" y="3465982.398600001" type="priority"/>
<node id="83dd9" x="-2497156.96175" y="3465675.0170099996" type="priority"/>
<node id="20d6e" x="-2499528.03205" y="3466046.308940001" type="priority"/>
<node id="526e3" x="-2499125.7639699997" y="3465958.2609899994" type="priority"/>
<node id="c1865" x="-2499791.3383299997" y="3466098.7437500004" type="priority"/>
<node id="5e614" x="-2497137.76165" y="3465646.00478" type="priority"/>
<node id="e0b80" x="-2497171.1174999997" y="3465228.2388899997" type="priority"/>
<node id="eb401" x="-2499298.6496099997" y="3465694.447520001" type="priority"/>
<node id="21587" x="-2500210.6977500003" y="3465810.61393" type="priority"/>
<node id="76eca" x="-2501342.59963" y="3466098.3269800004" type="priority"/>
<node id="9018a" x="-2500697.08322" y="3465978.0314099994" type="priority"/>
<node id="f05f2" x="-2500285.90938" y="3465889.62201" type="priority"/>
<node id="13246" x="-2499564.0546" y="3465741.1662399992" type="priority"/>
<node id="23ac0" x="-2499447.53321" y="3465726.034739999" type="priority"/>
<node id="e63da" x="-2500328.37475" y="3465903.7059400007" type="priority"/>
<node id="35d41" x="-2500626.85" y="3465968.715810001" type="priority"/>
<node id="b9c0b" x="-2499347.6567599997" y="3465713.33976" type="priority"/>
<node id="e2268" x="-2500371.2872" y="3465916.6625200007" type="priority"/>
<node id="c0004" x="-2497032.1762300003" y="3465031.2643800005" type="priority"/>
<node id="e7e2b" x="-2497472.78114" y="3465193.04603" type="priority"/>
<node id="1a893" x="-2497573.7063800003" y="3465213.34478" type="priority"/>
<node id="3428c" x="-2499220.27091" y="3465537.4882900007" type="priority"/>
<node id="b5b2a" x="-2500217.2753600003" y="3465717.11135" type="priority"/>
<node id="d450a" x="-2501344.13353" y="3466090.50107" type="priority"/>
<node id="a55f3" x="-2500219.45833" y="3465707.808049999" type="priority"/>
<node id="275ed" x="-2499302.46536" y="3465542.4335600007" type="priority"/>
<node id="3d639" x="-2496392.48255" y="3464409.16161" type="priority"/>
<node id="140f5" x="-2500455.2907" y="3465841.1118899994" type="priority"/>
<node id="f78a5" x="-2496478.88538" y="3464480.6808599997" type="priority"/>
<node id="32af9" x="-2496271.1276000002" y="3464260.7358800005" type="priority"/>
<node id="0db96" x="-2500222.77621" y="3465336.5130000003" type="priority"/>
<node id="235e5" x="-2501440.97589" y="3465579.4777099993" type="priority"/>
<node id="999bd" x="-2497469.05417" y="3464772.28445" type="priority"/>
<node id="e93fd" x="-2501063.92718" y="3465491.6644" type="priority"/>
<node id="05a13" x="-2499919.70063" y="3465256.5560599994" type="priority"/>
<node id="3980a" x="-2499853.83938" y="3465243.4680899996" type="priority"/>
<node id="af6cf" x="-2498564.93719" y="3464991.735819999" type="priority"/>
<node id="f2cdb" x="-2498730.1126800003" y="3465048.2668200005" type="priority"/>
<node id="efa81" x="-2498846.66579" y="3465078.8084699996" type="priority"/>
<node id="dc287" x="-2499664.0816200003" y="3465247.0675799996" type="priority"/>
<node id="003ac" x="-2500314.84354" y="3465362.72556" type="priority"/>
<node id="be773" x="-2500393.83046" y="3465385.24364" type="priority"/>
<node id="5e272" x="-2500490.66435" y="3465412.95142" type="priority"/>
<node id="6ad57" x="-2500581.65185" y="3465439.2482200004" type="priority"/>
<node id="230c5" x="-2501069.2672800003" y="3465535.8845000006" type="priority"/>
<node id="cb660" x="-2501157.26549" y="3465546.29122" type="priority"/>
<node id="c1903" x="-2501238.77696" y="3465555.394200001" type="priority"/>
<node id="f38ac" x="-2501344.13751" y="3465567.8203599993" type="priority"/>
<node id="49a4b" x="-2501527.7530300003" y="3465591.1436100006" type="priority"/>
<node id="bcdf5" x="-2498399.06202" y="3464966.5934500005" type="priority"/>
<node id="fa6e8" x="-2498247.20268" y="3464943.3895999994" type="priority"/>
<node id="7faba" x="-2499723.16154" y="3465350.22174" type="priority"/>
<node id="ad210" x="-2498928.81964" y="3465143.5410900004" type="priority"/>
<node id="a6426" x="-2499732.87717" y="3465211.780820001" type="priority"/>
<node id="186ab" x="-2500351.1972000003" y="3465138.3642999995" type="priority"/>
<node id="0e622" x="-2500842.4581899997" y="3465123.6765100006" type="priority"/>
<node id="4689c" x="-2498656.13157" y="3465047.7082400005" type="priority"/>
<node id="ec378" x="-2498428.4372300003" y="3465011.14068" type="priority"/>
<node id="614c1" x="-2498543.36596" y="3464987.7523100004" type="priority"/>
<node id="f4263" x="-2498410.65295" y="3464968.37259" type="priority"/>
<node id="915d3" x="-2498642.4086100003" y="3464995.16959" type="priority"/>
<node id="b9645" x="-2498435.2430600002" y="3464966.05607" type="priority"/>
<node id="177b8" x="-2497796.2415199997" y="3464845.657710001" type="priority"/>
<node id="d5596" x="-2497995.81268" y="3464892.907090001" type="priority"/>
<node id="07a32" x="-2498079.34331" y="3464910.00285" type="priority"/>
<node id="a8c90" x="-2499754.49809" y="3465253.458520001" type="priority"/>
<node id="aff47" x="-2499720.2713" y="3465364.927270001" type="priority"/>
<node id="1a8ea" x="-2499078.76408" y="3465213.0916600004" type="priority"/>
<node id="5e924" x="-2497171.42421" y="3464712.7100399993" type="priority"/>
<node id="a40bc" x="-2498018.12452" y="3464882.6566499993" type="priority"/>
<node id="72cad" x="-2498409.7146199998" y="3464961.11912" type="priority"/>
<node id="34145" x="-2500038.17648" y="3465286.497780001" type="priority"/>
<node id="530a1" x="-2501677.27401" y="3465621.087889999" type="priority"/>
<node id="005f2" x="-2499035.5600199997" y="3465192.0569700003" type="priority"/>
<node id="86755" x="-2499717.87872" y="3465357.192779999" type="priority"/>
<node id="6cf3e" x="-2498357.58579" y="3464994.9999199994" type="priority"/>
<node id="b126b" x="-2498257.55475" y="3464937.8397000004" type="priority"/>
<node id="ea604" x="-2498473.35296" y="3464980.9608500004" type="priority"/>
<node id="e1b74" x="-2500116.2493000003" y="3465309.26461" type="priority"/>
<node id="af2b1" x="-2501997.04309" y="3465684.67437" type="priority"/>
<node id="564f3" x="-2497859.7851299997" y="3464733.1692200005" type="priority"/>
<node id="e4e61" x="-2497605.34038" y="3464706.59334" type="priority"/>
<node id="64c64" x="-2500838.7318" y="3465130.421119999" type="priority"/>
<node id="9a19a" x="-2498486.68548" y="3464997.4152700007" type="priority"/>
<node id="50cbc" x="-2498843.15117" y="3465115.36592" type="priority"/>
<node id="ca1a7" x="-2497862.2056799997" y="3464727.47477" type="priority"/>
<node id="04cd1" x="-2497562.07644" y="3464711.80745" type="priority"/>
<node id="1be89" x="-2499823.7773" y="3465261.09863" type="priority"/>
<node id="4ead9" x="-2498654.69247" y="3465055.90233" type="priority"/>
<node id="42913" x="-2497029.58305" y="3465740.633130001" type="priority"/>
<node id="85c9b" x="-2497019.16572" y="3465320.15326" type="priority"/>
<node id="bf987" x="-2496994.5833099997" y="3465037.193569999" type="priority"/>
<node id="42f7d" x="-2497022.0896699997" y="3465697.0473999996" type="priority"/>
<node id="b7560" x="-2497002.35754" y="3465101.70768" type="priority"/>
<node id="bb6e4" x="-2506174.81471" y="3466959.7993100006" type="priority"/>
<node id="69d4d" x="-2502696.49747" y="3465323.1018000003" type="priority"/>
<node id="2b671" x="-2503029.19899" y="3465439.6410799995" type="priority"/>
<node id="0f0bc" x="-2503162.9027899997" y="3465508.0424000006" type="priority"/>
<node id="472a7" x="-2502481.05425" y="3465277.5156900007" type="priority"/>
<node id="24e77" x="-2502404.14932" y="3471027.2335800007" type="priority"/>
<node id="ff193" x="-2502019.07712" y="3470252.1376300007" type="priority"/>
<node id="69018" x="-2503242.8918399997" y="3469060.4349099994" type="priority"/>
<node id="4ba24" x="-2503110.39733" y="3469109.69341" type="priority"/>
<node id="232eb" x="-2504438.65243" y="3467255.4059200007" type="priority"/>
<node id="43985" x="-2504374.91192" y="3467310.9570700005" type="priority"/>
<node id="5a7d9" x="-2502065.25229" y="3470168.9424600005" type="priority"/>
<node id="82591" x="-2496006.9895" y="3463883.18231" type="priority"/>
<node id="f495a" x="-2496089.0351799997" y="3463971.1033299994" type="priority"/>
<node id="29d37" x="-2495343.4118600003" y="3462577.7074100003" type="priority"/>
<node id="e3163" x="-2495573.12015" y="3462989.454879999" type="priority"/>
<node id="1a144" x="-2495598.2287" y="3463022.3235" type="priority"/>
<node id="be10c" x="-2495645.18178" y="3463081.85712" type="priority"/>
<node id="f872e" x="-2495683.0120900003" y="3463128.25351" type="priority"/>
<node id="a9029" x="-2495756.65156" y="3463239.3292299993" type="priority"/>
<node id="445ec" x="-2495799.7187099997" y="3463297.7141900007" type="priority"/>
<node id="9c05b" x="-2496170.41475" y="3464053.11647" type="priority"/>
<node id="0038b" x="-2496189.94914" y="3464095.010810001" type="priority"/>
<node id="e1e03" x="-2496047.9465699997" y="3463987.9634300005" type="priority"/>
<node id="80119" x="-2495752.79409" y="3463427.20201" type="priority"/>
<node id="6cd42" x="-2496122.67429" y="3463956.3667900003" type="priority"/>
<node id="90753" x="-2496149.34396" y="3464023.723169999" type="priority"/>
<node id="46c16" x="-2495606.48572" y="3463145.2159199994" type="priority"/>
<node id="f7812" x="-2495261.22944" y="3462466.0143" type="priority"/>
<node id="ff7c2" x="-2496096.6506000003" y="3463962.0940799993" type="priority"/>
<node id="de82a" x="-2496933.05767" y="3464015.7976399995" type="priority"/>
<node id="e3888" x="-2496117.03884" y="3463965.46112" type="priority"/>
<node id="2e551" x="-2496095.0286999997" y="3463911.7121099997" type="priority"/>
<node id="3d629" x="-2495614.81863" y="3463161.4964199997" type="priority"/>
<node id="0abfe" x="-2496065.29227" y="3463987.5391000006" type="priority"/>
<node id="10958" x="-2496023.04794" y="3463660.0042199995" type="priority"/>
<node id="52c7a" x="-2495572.6363" y="3462964.7051" type="priority"/>
<node id="aa677" x="-2494713.02675" y="3461444.7782300003" type="priority"/>
<node id="9f98b" x="-2494587.7028" y="3461220.73566" type="priority"/>
<node id="f1461" x="-2493992.3470099997" y="3460151.1817300003" type="priority"/>
<node id="ec5f3" x="-2496022.16866" y="3463857.9397599995" type="priority"/>
<node id="e2908" x="-2495566.34365" y="3463036.3671899997" type="priority"/>
<node id="f5db9" x="-2494739.04882" y="3461492.3804599997" type="priority"/>
<node id="a4648" x="-2495512.32112" y="3462879.5379399993" type="priority"/>
<node id="e99ca" x="-2496074.00237" y="3463773.88445" type="priority"/>
<node id="4a3f9" x="-2494784.43721" y="3461589.2829" type="priority"/>
<node id="900c5" x="-2495573.5171999997" y="3463060.378420001" type="priority"/>
<node id="3d193" x="-2494623.38895" y="3461300.3340000007" type="priority"/>
<node id="e3e72" x="-2494652.6085099997" y="3461352.99055" type="priority"/>
<node id="02ab4" x="-2494613.8868" y="3461298.68695" type="priority"/>
<node id="2a792" x="-2494010.89792" y="3460216.2829400003" type="priority"/>
<node id="42daa" x="-2493990.24661" y="3460160.69039" type="priority"/>
<node id="79c79" x="-2493935.19411" y="3460026.1371400002" type="priority"/>
<node id="30c28" x="-2495643.0004000003" y="3463115.443050001" type="priority"/>
<node id="b725c" x="-2495439.7341" y="3462750.79669" type="priority"/>
<node id="02a0b" x="-2498595.24711" y="3465410.8563800007" type="priority"/>
<node id="21a3c" x="-2499058.4256800003" y="3465503.17983" type="priority"/>
<node id="70e68" x="-2497544.1532300003" y="3465203.09485" type="priority"/>
<node id="dd592" x="-2502672.98959" y="3470652.60974" type="priority"/>
<node id="04750" x="-2499107.47117" y="3467499.618279999" type="priority"/>
<node id="1b662" x="-2501503.20386" y="3470966.54074" type="priority"/>
<node id="d6a4f" x="-2501429.43779" y="3471142.7410899997" type="priority"/>
<node id="09c22" x="-2496304.40159" y="3462020.9167100005" type="priority"/>
<node id="2504e" x="-2494943.27307" y="3461471.0735100005" type="priority"/>
<node id="c1cc2" x="-2495007.94924" y="3461463.9618500005" type="priority"/>
<node id="fd8b3" x="-2496330.60471" y="3462111.35348" type="priority"/>
<node id="87fb0" x="-2495142.4216299998" y="3461442.8644200005" type="priority"/>
<node id="c5d46" x="-2498904.34496" y="3465266.67457" type="priority"/>
<node id="820eb" x="-2497903.30986" y="3464673.4709600005" type="priority"/>
<node id="1016f" x="-2500688.49554" y="3470018.4375" type="priority"/>
<node id="f2871" x="-2494732.06581" y="3461496.853150001" type="priority"/>
<node id="4bdf8" x="-2493469.5681600003" y="3459476.84437" type="priority"/>
<node id="58d80" x="-2494375.3854900002" y="3461524.1299600005" type="priority"/>
<node id="153ee" x="-2501729.34003" y="3466763.335310001" type="priority"/>
<node id="7fcd0" x="-2501815.05987" y="3466580.824379999" type="priority"/>
<node id="32422" x="-2501796.61764" y="3466576.84478" type="priority"/>
<node id="666bc" x="-2494693.1431299997" y="3461425.367520001" type="priority"/>
<node id="24aaa" x="-2494687.68987" y="3461415.213369999" type="priority"/>
<node id="b6b6d" x="-2493455.62357" y="3459476.6903099995" type="priority"/>
<node id="29e28" x="-2493881.88806" y="3459972.590260001" type="priority"/>
<node id="46083" x="-2493946.14531" y="3460066.10967" type="priority"/>
<node id="5af26" x="-2493971.2971099997" y="3460137.5951300003" type="priority"/>
<node id="419aa" x="-2494008.2477599997" y="3460300.642170001" type="priority"/>
<node id="0d601" x="-2494016.6287000002" y="3460279.8805" type="priority"/>
<node id="6d0f1" x="-2494575.71638" y="3461270.40261" type="priority"/>
<node id="0ba97" x="-2494617.17002" y="3461319.4569700006" type="priority"/>
<node id="942b4" x="-2494643.65392" y="3461353.2205800004" type="priority"/>
<node id="f4f7b" x="-2494024.51274" y="3460274.866250001" type="priority"/>
<node id="1f868" x="-2494565.18023" y="3461233.7732500006" type="priority"/>
<node id="bf2fb" x="-2497264.32382" y="3465621.3954600003" type="priority"/>
<node id="089b6" x="-2497656.06887" y="3465925.5559599996" type="priority"/>
<node id="2ab08" x="-2497686.7151699997" y="3465797.732829999" type="priority"/>
<node id="957fc" x="-2500288.9479" y="3465672.573829999" type="priority"/>
<node id="055e5" x="-2499742.80736" y="3465563.96095" type="priority"/>
<node id="6db9e" x="-2500268.7593" y="3465688.3104999997" type="priority"/>
<node id="e238e" x="-2499628.86878" y="3465361.2334199995" type="priority"/>
<node id="88070" x="-2499746.83585" y="3465384.1398300007" type="priority"/>
<node id="abd77" x="-2500689.65583" y="3465572.1116000004" type="priority"/>
<node id="9257a" x="-2501008.06557" y="3465635.8030600008" type="priority"/>
<node id="b4a3f" x="-2500367.8104499998" y="3465487.431569999" type="priority"/>
<node id="e806c" x="-2501867.3481099997" y="3467169.0856299996" type="priority"/>
<node id="3066e" x="-2502040.20981" y="3466600.8781700004" type="priority"/>
<node id="e3a0e" x="-2501240.25337" y="3467344.6480199993" type="priority"/>
<node id="fc39e" x="-2497059.31711" y="3466332.2713099997" type="priority"/>
<node id="2059d" x="-2493668.6083500003" y="3459405.31766" type="priority"/>
<node id="a6458" x="-2502015.7460000003" y="3466598.4382499997" type="priority"/>
<node id="fd66a" x="-2502042.29877" y="3466729.071900001" type="priority"/>
<node id="f3f39" x="-2499663.93081" y="3465242.13315" type="priority"/>
<node id="58a54" x="-2502154.20829" y="3466321.865599999" type="priority"/>
<node id="30461" x="-2501429.78264" y="3466692.0635199994" type="priority"/>
<node id="1b49c" x="-2500577.21358" y="3467192.8792899996" type="priority"/>
<node id="328f0" x="-2499179.1284499997" y="3465265.5784399994" type="priority"/>
</nodes>
