<additional>
    <busStop id="station" lane="e568c-0_0" />
</additional>
