<connections>







<!-- Point c2569 5212bf60-e7c6-4440-8bd8-d6ad7cac2569 -->
<connection from="94139-0" to="cfc57-1"/>
<connection from="94139-0" to="cfc57-1-re"/>
<connection from="94139-0-re" to="cfc57-1"/>
<connection from="94139-0-re" to="cfc57-1-re"/>
<connection from="a3489-0" to="cfc57-1"/>
<connection from="a3489-0" to="cfc57-1-re"/>
<connection from="a3489-0-re" to="cfc57-1"/>
<connection from="a3489-0-re" to="cfc57-1-re"/>
<connection from="cfc57-1" to="94139-0"/>
<connection from="cfc57-1" to="a3489-0"/>
<connection from="cfc57-1" to="94139-0-re"/>
<connection from="cfc57-1" to="a3489-0-re"/>
<connection from="cfc57-1-re" to="94139-0"/>
<connection from="cfc57-1-re" to="a3489-0"/>
<connection from="cfc57-1-re" to="94139-0-re"/>
<connection from="cfc57-1-re" to="a3489-0-re"/>
<!-- Point 3b2ee 44872f0a-e46a-4ffe-9d38-7bff23c3b2ee -->
<connection from="7df3b-0" to="a3489-0"/>
<connection from="7df3b-0" to="a3489-0-re"/>
<connection from="7df3b-0-re" to="a3489-0"/>
<connection from="7df3b-0-re" to="a3489-0-re"/>
<connection from="e5339-0" to="a3489-0"/>
<connection from="e5339-0" to="a3489-0-re"/>
<connection from="e5339-0-re" to="a3489-0"/>
<connection from="e5339-0-re" to="a3489-0-re"/>
<connection from="a3489-0" to="7df3b-0"/>
<connection from="a3489-0" to="e5339-0"/>
<connection from="a3489-0" to="7df3b-0-re"/>
<connection from="a3489-0" to="e5339-0-re"/>
<connection from="a3489-0-re" to="7df3b-0"/>
<connection from="a3489-0-re" to="e5339-0"/>
<connection from="a3489-0-re" to="7df3b-0-re"/>
<connection from="a3489-0-re" to="e5339-0-re"/>
<!-- Point 73093 c2534442-bc49-49a3-972e-2e25fc473093 -->
<connection from="2f5fd-0" to="8f1ba-0"/>
<connection from="2f5fd-0" to="8f1ba-0-re"/>
<connection from="2f5fd-0-re" to="8f1ba-0"/>
<connection from="2f5fd-0-re" to="8f1ba-0-re"/>
<connection from="460b0-0" to="8f1ba-0"/>
<connection from="460b0-0" to="8f1ba-0-re"/>
<connection from="460b0-0-re" to="8f1ba-0"/>
<connection from="460b0-0-re" to="8f1ba-0-re"/>
<connection from="8f1ba-0" to="2f5fd-0"/>
<connection from="8f1ba-0" to="460b0-0"/>
<connection from="8f1ba-0" to="2f5fd-0-re"/>
<connection from="8f1ba-0" to="460b0-0-re"/>
<connection from="8f1ba-0-re" to="2f5fd-0"/>
<connection from="8f1ba-0-re" to="460b0-0"/>
<connection from="8f1ba-0-re" to="2f5fd-0-re"/>
<connection from="8f1ba-0-re" to="460b0-0-re"/>
<!-- Point 61322 972c43c3-ba64-48d9-a6f8-16d720361322 -->
<connection from="faa47-1" to="b2e35-0"/>
<connection from="faa47-1" to="b2e35-0-re"/>
<connection from="faa47-1-re" to="b2e35-0"/>
<connection from="faa47-1-re" to="b2e35-0-re"/>
<connection from="9c244-1" to="b2e35-0"/>
<connection from="9c244-1" to="b2e35-0-re"/>
<connection from="9c244-1-re" to="b2e35-0"/>
<connection from="9c244-1-re" to="b2e35-0-re"/>
<connection from="b2e35-0" to="faa47-1"/>
<connection from="b2e35-0" to="9c244-1"/>
<connection from="b2e35-0" to="faa47-1-re"/>
<connection from="b2e35-0" to="9c244-1-re"/>
<connection from="b2e35-0-re" to="faa47-1"/>
<connection from="b2e35-0-re" to="9c244-1"/>
<connection from="b2e35-0-re" to="faa47-1-re"/>
<connection from="b2e35-0-re" to="9c244-1-re"/>
<!-- Signal 637cdc98-0b49-4eff-bd2f-b9549becfc57-km-25 a263d38d-71d4-42e9-826c-b29c74420ca5 -->
<connection from="cfc57-0" to="cfc57-1"/>
<connection from="cfc57-0" to="cfc57-1-re"/>
<connection from="cfc57-0-re" to="cfc57-1"/>
<connection from="cfc57-0-re" to="cfc57-1-re"/>
<connection from="cfc57-1" to="cfc57-0"/>
<connection from="cfc57-1" to="cfc57-0-re"/>
<connection from="cfc57-1-re" to="cfc57-0"/>
<connection from="cfc57-1-re" to="cfc57-0-re"/>
<!-- Signal 3ca2dedd-2ffc-4b75-9083-3ab21f1460b0-km-25 ebbb3db4-665e-4a62-a894-25d6a2c85dc8 -->
<connection from="460b0-0" to="460b0-1"/>
<connection from="460b0-0" to="460b0-1-re"/>
<connection from="460b0-0-re" to="460b0-1"/>
<connection from="460b0-0-re" to="460b0-1-re"/>
<connection from="460b0-1" to="460b0-0"/>
<connection from="460b0-1" to="460b0-0-re"/>
<connection from="460b0-1-re" to="460b0-0"/>
<connection from="460b0-1-re" to="460b0-0-re"/>
<!-- Signal 6d449885-ff8d-4b6e-9b72-38530eb8f1ba-km-25 06a41e0c-8407-4732-aa17-0583d29ee9c7 -->
<connection from="8f1ba-0" to="8f1ba-1"/>
<connection from="8f1ba-0" to="8f1ba-1-re"/>
<connection from="8f1ba-0-re" to="8f1ba-1"/>
<connection from="8f1ba-0-re" to="8f1ba-1-re"/>
<connection from="8f1ba-1" to="8f1ba-0"/>
<connection from="8f1ba-1" to="8f1ba-0-re"/>
<connection from="8f1ba-1-re" to="8f1ba-0"/>
<connection from="8f1ba-1-re" to="8f1ba-0-re"/>
<!-- Signal d9205287-7ce7-45c9-8cb2-e2579327df3b-km-25 5f7b3eca-109b-49cf-aab6-b1ad65fed6cd -->
<connection from="7df3b-0" to="7df3b-1"/>
<connection from="7df3b-0" to="7df3b-1-re"/>
<connection from="7df3b-0-re" to="7df3b-1"/>
<connection from="7df3b-0-re" to="7df3b-1-re"/>
<connection from="7df3b-1" to="7df3b-0"/>
<connection from="7df3b-1" to="7df3b-0-re"/>
<connection from="7df3b-1-re" to="7df3b-0"/>
<connection from="7df3b-1-re" to="7df3b-0-re"/>
<!-- Signal aeebf46c-cdd8-48df-be4a-8fcd265e5339-km-25 409c0c99-e00f-4333-8da2-b9445df1fc8d -->
<connection from="e5339-0" to="e5339-1"/>
<connection from="e5339-0" to="e5339-1-re"/>
<connection from="e5339-0-re" to="e5339-1"/>
<connection from="e5339-0-re" to="e5339-1-re"/>
<connection from="e5339-1" to="e5339-0"/>
<connection from="e5339-1" to="e5339-0-re"/>
<connection from="e5339-1-re" to="e5339-0"/>
<connection from="e5339-1-re" to="e5339-0-re"/>
<!-- Signal 851172f3-4321-412f-96e8-b992d129c244-km-25 4ec09af2-8136-4b4a-bf2e-e5901dd99fd7 -->
<connection from="9c244-0" to="9c244-1"/>
<connection from="9c244-0" to="9c244-1-re"/>
<connection from="9c244-0-re" to="9c244-1"/>
<connection from="9c244-0-re" to="9c244-1-re"/>
<connection from="9c244-1" to="9c244-0"/>
<connection from="9c244-1" to="9c244-0-re"/>
<connection from="9c244-1-re" to="9c244-0"/>
<connection from="9c244-1-re" to="9c244-0-re"/>
<!-- Signal 4f8ce8a3-eeba-498b-a787-6bbc635faa47-km-25 1f6181ef-2206-4ef9-a2c5-aaa5f7d5fdd1 -->
<connection from="faa47-0" to="faa47-1"/>
<connection from="faa47-0" to="faa47-1-re"/>
<connection from="faa47-0-re" to="faa47-1"/>
<connection from="faa47-0-re" to="faa47-1-re"/>
<connection from="faa47-1" to="faa47-0"/>
<connection from="faa47-1" to="faa47-0-re"/>
<connection from="faa47-1-re" to="faa47-0"/>
<connection from="faa47-1-re" to="faa47-0-re"/>
<!-- Signal 01ff1b08-fb63-457e-9823-c523938b2e35-km-25 ade6c030-32b2-4062-81e7-8a112d56b3ec -->
<connection from="b2e35-0" to="b2e35-1"/>
<connection from="b2e35-0" to="b2e35-1-re"/>
<connection from="b2e35-0-re" to="b2e35-1"/>
<connection from="b2e35-0-re" to="b2e35-1-re"/>
<connection from="b2e35-1" to="b2e35-0"/>
<connection from="b2e35-1" to="b2e35-0-re"/>
<connection from="b2e35-1-re" to="b2e35-0"/>
<connection from="b2e35-1-re" to="b2e35-0-re"/>
</connections>
