<additional>
  <busStop id="station-0" lane="8f1ba-1_0" />
  <busStop id="station-1" lane="7df3b-1_0" />
  <busStop id="station-2" lane="e5339-1_0" />
</additional>
