<edges>
<!-- Track b08ff2bd-8d29-403a-b96f-e5580fa74212 -->
<edge id="74212-0" from="505c7" to="32f56" shape="-2502198.12597,3467432.6135300007 -2502326.87985,3467457.56728 -2502538.0035300003,3467500.4087799992" priority="-1" numLanes="1" speed="110.0" allow="rail rail_electric" spreadType="center" />
<edge id="74212-0-re" from="32f56" to="505c7" shape="-2502538.0035300003,3467500.4087799992 -2502326.87985,3467457.56728 -2502198.12597,3467432.6135300007" priority="-1" numLanes="1" speed="110.0" allow="rail rail_electric" spreadType="center" />
<!-- Track 1ead8d9a-6d31-494d-aef1-40c483e45487 -->
<edge id="45487-0" from="505c7" to="1aaf4" shape="-2502198.12597,3467432.6135300007 -2502011.2665299997,3467395.2331499998" priority="-1" numLanes="1" speed="110.0" allow="rail rail_electric" spreadType="center" />
<edge id="45487-0-re" from="1aaf4" to="505c7" shape="-2502011.2665299997,3467395.2331499998 -2502198.12597,3467432.6135300007" priority="-1" numLanes="1" speed="110.0" allow="rail rail_electric" spreadType="center" />
<!-- Track 96c488bf-268d-4336-ab7c-0b2521109685 -->
<edge id="09685-0" from="505c7" to="7bc6f" shape="-2502198.12597,3467432.6135300007 -2501986.54402,3467407.1456000004 -2501941.3945899997,3467406.669229999 -2501900.14021,3467408.084829999 -2501830.26282,3467412.3299899995 -2501757.78116,3467419.529619999 -2501699.91196,3467418.6983400006 -2501637.2375,3467415.15701 -2501580.2459899997,3467407.526350001 -2501328.4789,3467357.3175099995" priority="-1" numLanes="1" speed="110.0" allow="rail rail_electric" spreadType="center" />
<edge id="09685-0-re" from="7bc6f" to="505c7" shape="-2501328.4789,3467357.3175099995 -2501580.2459899997,3467407.526350001 -2501637.2375,3467415.15701 -2501699.91196,3467418.6983400006 -2501757.78116,3467419.529619999 -2501830.26282,3467412.3299899995 -2501900.14021,3467408.084829999 -2501941.3945899997,3467406.669229999 -2501986.54402,3467407.1456000004 -2502198.12597,3467432.6135300007" priority="-1" numLanes="1" speed="110.0" allow="rail rail_electric" spreadType="center" />
<!-- Track 79ebabf0-0853-46a5-baeb-8d8ddf876a56 -->
<edge id="76a56-0" from="1aaf4" to="1ce6d" shape="-2502011.2665299997,3467395.2331499998 -2501902.1878899997,3467380.7301499993 -2501866.15293,3467378.21363 -2501673.07656,3467367.35386 -2501592.4169300003,3467359.1409399994 -2501551.4473,3467353.0741799995 -2501505.25312,3467345.7809800003 -2501206.74259,3467286.4816500004" priority="-1" numLanes="1" speed="110.0" allow="rail rail_electric" spreadType="center" />
<edge id="76a56-0-re" from="1ce6d" to="1aaf4" shape="-2501206.74259,3467286.4816500004 -2501505.25312,3467345.7809800003 -2501551.4473,3467353.0741799995 -2501592.4169300003,3467359.1409399994 -2501673.07656,3467367.35386 -2501866.15293,3467378.21363 -2501902.1878899997,3467380.7301499993 -2502011.2665299997,3467395.2331499998" priority="-1" numLanes="1" speed="110.0" allow="rail rail_electric" spreadType="center" />
<!-- Track 4307f3be-742b-4b1c-a2c5-f0dd3be344ea -->
<edge id="344ea-0" from="1aaf4" to="fb649" shape="-2502011.2665299997,3467395.2331499998 -2501807.9043300003,3467349.8108099997 -2501754.26764,3467336.96999" priority="-1" numLanes="1" speed="110.0" allow="rail rail_electric" spreadType="center" />
<edge id="344ea-0-re" from="fb649" to="1aaf4" shape="-2501754.26764,3467336.96999 -2501807.9043300003,3467349.8108099997 -2502011.2665299997,3467395.2331499998" priority="-1" numLanes="1" speed="110.0" allow="rail rail_electric" spreadType="center" />
<!-- Track 3dd2e245-7cc9-4879-b0ec-8bd777fee842 -->
<edge id="ee842-0" from="1ce6d" to="0c984" shape="-2501206.74259,3467286.4816500004 -2501015.8400600003,3467247.873880001" priority="-1" numLanes="1" speed="110.0" allow="rail rail_electric" spreadType="center" />
<edge id="ee842-0-re" from="0c984" to="1ce6d" shape="-2501015.8400600003,3467247.873880001 -2501206.74259,3467286.4816500004" priority="-1" numLanes="1" speed="110.0" allow="rail rail_electric" spreadType="center" />
<!-- Track 46aff4a2-9aca-45ff-97f3-021e7c19efd3 -->
<edge id="9efd3-0" from="1ce6d" to="fb09a" shape="-2501206.74259,3467286.4816500004 -2501292.26427,3467298.73656 -2501351.82864,3467306.9248900004 -2501777.8962399997,3467364.0153800007" priority="-1" numLanes="1" speed="110.0" allow="rail rail_electric" spreadType="center" />
<edge id="9efd3-0-re" from="fb09a" to="1ce6d" shape="-2501777.8962399997,3467364.0153800007 -2501351.82864,3467306.9248900004 -2501292.26427,3467298.73656 -2501206.74259,3467286.4816500004" priority="-1" numLanes="1" speed="110.0" allow="rail rail_electric" spreadType="center" />
<!-- Track 6546fe49-54ee-481d-a17a-50801c3504bd -->
<edge id="504bd-0" from="0c984" to="4c1b2" shape="-2501015.8400600003,3467247.873880001 -2500319.68061,3467109.52558" priority="-1" numLanes="1" speed="110.0" allow="rail rail_electric" spreadType="center" />
<edge id="504bd-0-re" from="4c1b2" to="0c984" shape="-2500319.68061,3467109.52558 -2501015.8400600003,3467247.873880001" priority="-1" numLanes="1" speed="110.0" allow="rail rail_electric" spreadType="center" />
<!-- Track c651c7be-fa47-4cae-a3c0-1f39e76e5527 -->
<edge id="e5527-0" from="0c984" to="0fa7a" shape="-2501015.8400600003,3467247.873880001 -2501115.08361,3467272.0554600004 -2501236.73985,3467305.6705399994 -2501274.0125700003,3467312.661529999 -2501684.7521200003,3467394.7215800006" priority="-1" numLanes="1" speed="110.0" allow="rail rail_electric" spreadType="center" />
<edge id="e5527-0-re" from="0fa7a" to="0c984" shape="-2501684.7521200003,3467394.7215800006 -2501274.0125700003,3467312.661529999 -2501236.73985,3467305.6705399994 -2501115.08361,3467272.0554600004 -2501015.8400600003,3467247.873880001" priority="-1" numLanes="1" speed="110.0" allow="rail rail_electric" spreadType="center" />
<!-- Track 9601d875-b5a9-44e1-ac01-877caee9922e -->
<edge id="9922e-0" from="a1e5c" to="b9d33" shape="-2498540.54764,3466763.4935800005 -2498402.6613499997,3466732.73161 -2498329.96588,3466713.1247499995 -2498268.72423,3466698.8420899995" priority="-1" numLanes="1" speed="110.0" allow="rail rail_electric" spreadType="center" />
<edge id="9922e-0-re" from="b9d33" to="a1e5c" shape="-2498268.72423,3466698.8420899995 -2498329.96588,3466713.1247499995 -2498402.6613499997,3466732.73161 -2498540.54764,3466763.4935800005" priority="-1" numLanes="1" speed="110.0" allow="rail rail_electric" spreadType="center" />
<!-- Track 6b54d17e-4b50-4431-9ddd-0283b5692c58 -->
<edge id="92c58-0" from="a1e5c" to="6137d" shape="-2498540.54764,3466763.4935800005 -2498576.53387,3466770.6508099996" priority="-1" numLanes="1" speed="110.0" allow="rail rail_electric" spreadType="center" />
<edge id="92c58-0-re" from="6137d" to="a1e5c" shape="-2498576.53387,3466770.6508099996 -2498540.54764,3466763.4935800005" priority="-1" numLanes="1" speed="110.0" allow="rail rail_electric" spreadType="center" />
<!-- Track 6fd94eb0-acea-4aef-94d6-db663f513c83 -->
<edge id="13c83-0" from="a1e5c" to="85a5b" shape="-2498540.54764,3466763.4935800005 -2498252.68266,3466726.1891099997 -2498197.48094,3466721.89085 -2498139.02323,3466720.706219999 -2498060.3311900003,3466723.9792299997 -2497982.49469,3466733.01819 -2497909.9296500003,3466748.15646 -2497850.34973,3466766.0617699996 -2497809.3890500003,3466783.1006199997 -2497777.6173099997,3466798.02104 -2497757.65106,3466807.11544 -2497727.25933,3466826.2988600004 -2497702.75416,3466844.8849400003 -2497672.7243999997,3466868.5284599997 -2497638.29837,3466909.5678899996 -2497613.25141,3466948.8926599994 -2497593.60754,3466989.2724399995 -2497575.08128,3467046.9352100007 -2497569.9086800003,3467066.7781099994 -2497563.73441,3467105.96246 -2497557.50134,3467146.900459999 -2497556.05418,3467193.9233500008 -2497556.2335200002,3467236.8809600007 -2497560.39695,3467302.4759100005 -2497575.63252,3467387.626049999 -2497591.92547,3467452.675519999 -2497624.94031,3467543.71119 -2497663.94741,3467628.118450001 -2497712.75335,3467713.11197 -2497760.3523,3467784.1246099994 -2497825.04466,3467867.2288099993 -2497882.94791,3467933.29803 -2497954.1841700003,3468006.7475000005 -2498048.39064,3468092.79583 -2498147.8514,3468178.25674 -2498263.92411,3468270.6784099992 -2498342.1996999998,3468330.46768 -2498420.80864,3468386.5413499996 -2498652.22039,3468554.6521700006 -2499030.181,3468824.3028100003 -2499492.79879,3469158.6472699996 -2499607.48544,3469240.3513200004 -2500024.2620200003,3469539.477430001 -2500184.64418,3469655.1375200003 -2500305.05141,3469739.8357100002 -2500418.8024899997,3469824.2594099995 -2500574.48892,3469936.35939 -2500644.86252,3469986.7818100005 -2500688.49554,3470018.4375" priority="-1" numLanes="1" speed="110.0" allow="rail rail_electric" spreadType="center" />
<edge id="13c83-0-re" from="85a5b" to="a1e5c" shape="-2500688.49554,3470018.4375 -2500644.86252,3469986.7818100005 -2500574.48892,3469936.35939 -2500418.8024899997,3469824.2594099995 -2500305.05141,3469739.8357100002 -2500184.64418,3469655.1375200003 -2500024.2620200003,3469539.477430001 -2499607.48544,3469240.3513200004 -2499492.79879,3469158.6472699996 -2499030.181,3468824.3028100003 -2498652.22039,3468554.6521700006 -2498420.80864,3468386.5413499996 -2498342.1996999998,3468330.46768 -2498263.92411,3468270.6784099992 -2498147.8514,3468178.25674 -2498048.39064,3468092.79583 -2497954.1841700003,3468006.7475000005 -2497882.94791,3467933.29803 -2497825.04466,3467867.2288099993 -2497760.3523,3467784.1246099994 -2497712.75335,3467713.11197 -2497663.94741,3467628.118450001 -2497624.94031,3467543.71119 -2497591.92547,3467452.675519999 -2497575.63252,3467387.626049999 -2497560.39695,3467302.4759100005 -2497556.2335200002,3467236.8809600007 -2497556.05418,3467193.9233500008 -2497557.50134,3467146.900459999 -2497563.73441,3467105.96246 -2497569.9086800003,3467066.7781099994 -2497575.08128,3467046.9352100007 -2497593.60754,3466989.2724399995 -2497613.25141,3466948.8926599994 -2497638.29837,3466909.5678899996 -2497672.7243999997,3466868.5284599997 -2497702.75416,3466844.8849400003 -2497727.25933,3466826.2988600004 -2497757.65106,3466807.11544 -2497777.6173099997,3466798.02104 -2497809.3890500003,3466783.1006199997 -2497850.34973,3466766.0617699996 -2497909.9296500003,3466748.15646 -2497982.49469,3466733.01819 -2498060.3311900003,3466723.9792299997 -2498139.02323,3466720.706219999 -2498197.48094,3466721.89085 -2498252.68266,3466726.1891099997 -2498540.54764,3466763.4935800005" priority="-1" numLanes="1" speed="110.0" allow="rail rail_electric" spreadType="center" />
<!-- Track 2f1de61e-a8fd-4064-bf0e-4e0f930f86e1 -->
<edge id="f86e1-0" from="b9d33" to="9fe24" shape="-2498268.72423,3466698.8420899995 -2498747.89618,3466795.468219999" priority="-1" numLanes="1" speed="110.0" allow="rail rail_electric" spreadType="center" />
<edge id="f86e1-0-re" from="9fe24" to="b9d33" shape="-2498747.89618,3466795.468219999 -2498268.72423,3466698.8420899995" priority="-1" numLanes="1" speed="110.0" allow="rail rail_electric" spreadType="center" />
<!-- Track b0d6acd8-d6aa-4ba3-bc04-3f68e298203e -->
<edge id="8203e-0" from="b9d33" to="92704" shape="-2498268.72423,3466698.8420899995 -2497683.84035,3466580.68341 -2497616.70742,3466562.6213700008 -2497555.57539,3466541.44915 -2497493.5793000003,3466516.0916099995 -2497432.28336,3466486.141829999 -2497376.3927100003,3466452.90364 -2497326.80472,3466420.47088 -2497278.2940499997,3466378.9560199995 -2497243.99343,3466345.50536 -2497199.77704,3466293.87476 -2497166.09967,3466237.4059999995 -2497145.7740700003,3466189.32962 -2497129.6652800003,3466136.54428 -2497120.9402799997,3466053.3049500007 -2497107.6139,3465873.5539800003 -2497105.27989,3465831.8552 -2497092.47124,3465670.9046800006 -2497083.5450299997,3465548.59633" priority="-1" numLanes="1" speed="110.0" allow="rail rail_electric" spreadType="center" />
<edge id="8203e-0-re" from="92704" to="b9d33" shape="-2497083.5450299997,3465548.59633 -2497092.47124,3465670.9046800006 -2497105.27989,3465831.8552 -2497107.6139,3465873.5539800003 -2497120.9402799997,3466053.3049500007 -2497129.6652800003,3466136.54428 -2497145.7740700003,3466189.32962 -2497166.09967,3466237.4059999995 -2497199.77704,3466293.87476 -2497243.99343,3466345.50536 -2497278.2940499997,3466378.9560199995 -2497326.80472,3466420.47088 -2497376.3927100003,3466452.90364 -2497432.28336,3466486.141829999 -2497493.5793000003,3466516.0916099995 -2497555.57539,3466541.44915 -2497616.70742,3466562.6213700008 -2497683.84035,3466580.68341 -2498268.72423,3466698.8420899995" priority="-1" numLanes="1" speed="110.0" allow="rail rail_electric" spreadType="center" />
<!-- Track f2d11cb4-07d4-4b0f-9cab-785009135b97 -->
<edge id="35b97-0" from="8258a" to="bff13" shape="-2497040.4622299997,3464885.77458 -2497015.99143,3464028.421530001 -2497013.97126,3463976.808390001 -2497009.42261,3463938.33306 -2497000.0510400003,3463878.5135699995 -2496980.11027,3463796.085000001 -2496942.81543,3463687.8461499996 -2496891.7515700003,3463554.4648199994 -2496594.61733,3462763.889389999 -2496506.79474,3462530.2199099995 -2496450.0170400003,3462387.64068 -2496394.26611,3462244.6163500007 -2496373.25611,3462190.691919999 -2496357.6298599998,3462153.2097500004 -2496304.40159,3462020.9167100005" priority="-1" numLanes="1" speed="110.0" allow="rail rail_electric" spreadType="center" />
<edge id="35b97-0-re" from="bff13" to="8258a" shape="-2496304.40159,3462020.9167100005 -2496357.6298599998,3462153.2097500004 -2496373.25611,3462190.691919999 -2496394.26611,3462244.6163500007 -2496450.0170400003,3462387.64068 -2496506.79474,3462530.2199099995 -2496594.61733,3462763.889389999 -2496891.7515700003,3463554.4648199994 -2496942.81543,3463687.8461499996 -2496980.11027,3463796.085000001 -2497000.0510400003,3463878.5135699995 -2497009.42261,3463938.33306 -2497013.97126,3463976.808390001 -2497015.99143,3464028.421530001 -2497040.4622299997,3464885.77458" priority="-1" numLanes="1" speed="110.0" allow="rail rail_electric" spreadType="center" />
<!-- Track 993ba68e-fa4e-4f1a-86d9-2f8fa816be58 -->
<edge id="6be58-0" from="8258a" to="4719f" shape="-2497040.4622299997,3464885.77458 -2497041.4403999997,3464952.8688200004" priority="-1" numLanes="1" speed="110.0" allow="rail rail_electric" spreadType="center" />
<edge id="6be58-0-re" from="4719f" to="8258a" shape="-2497041.4403999997,3464952.8688200004 -2497040.4622299997,3464885.77458" priority="-1" numLanes="1" speed="110.0" allow="rail rail_electric" spreadType="center" />
<!-- Track e3059445-24ce-4771-9231-7007ff0c6b7d -->
<edge id="c6b7d-0" from="8258a" to="0443b" shape="-2497040.4622299997,3464885.77458 -2497046.63124,3464821.1730000004 -2497048.08977,3464789.196489999" priority="-1" numLanes="1" speed="110.0" allow="rail rail_electric" spreadType="center" />
<edge id="c6b7d-0-re" from="0443b" to="8258a" shape="-2497048.08977,3464789.196489999 -2497046.63124,3464821.1730000004 -2497040.4622299997,3464885.77458" priority="-1" numLanes="1" speed="110.0" allow="rail rail_electric" spreadType="center" />
<!-- Track 0d5e0c0b-2be0-4482-ba6b-f68c801d06a3 -->
<edge id="d06a3-0" from="449a9" to="9fab2" shape="-2496162.36355,3464067.9474400003 -2496131.91341,3464011.2853200007" priority="-1" numLanes="1" speed="110.0" allow="rail rail_electric" spreadType="center" />
<edge id="d06a3-0-re" from="9fab2" to="449a9" shape="-2496131.91341,3464011.2853200007 -2496162.36355,3464067.9474400003" priority="-1" numLanes="1" speed="110.0" allow="rail rail_electric" spreadType="center" />
<!-- Track 12938051-c4ed-48ad-ab1b-3be7f2edfd25 -->
<edge id="dfd25-0" from="449a9" to="56813" shape="-2496162.36355,3464067.9474400003 -2496089.0351799997,3463971.1033299994" priority="-1" numLanes="1" speed="110.0" allow="rail rail_electric" spreadType="center" />
<edge id="dfd25-0-re" from="56813" to="449a9" shape="-2496089.0351799997,3463971.1033299994 -2496162.36355,3464067.9474400003" priority="-1" numLanes="1" speed="110.0" allow="rail rail_electric" spreadType="center" />
<!-- Track 3bde3dc8-6991-45b8-a660-9270e4eca07a -->
<edge id="ca07a-0" from="449a9" to="c5982" shape="-2496162.36355,3464067.9474400003 -2496199.62101,3464133.6441600006 -2496271.1276000002,3464260.7358800005" priority="-1" numLanes="1" speed="110.0" allow="rail rail_electric" spreadType="center" />
<edge id="ca07a-0-re" from="c5982" to="449a9" shape="-2496271.1276000002,3464260.7358800005 -2496199.62101,3464133.6441600006 -2496162.36355,3464067.9474400003" priority="-1" numLanes="1" speed="110.0" allow="rail rail_electric" spreadType="center" />
<!-- Track 31f462ae-1d3b-4ad3-bd8d-e42d30062915 -->
<edge id="62915-0" from="9fab2" to="500ed" shape="-2496131.91341,3464011.2853200007 -2495593.77887,3463048.5656199995" priority="-1" numLanes="1" speed="110.0" allow="rail rail_electric" spreadType="center" />
<edge id="62915-0-re" from="500ed" to="9fab2" shape="-2495593.77887,3463048.5656199995 -2496131.91341,3464011.2853200007" priority="-1" numLanes="1" speed="110.0" allow="rail rail_electric" spreadType="center" />
<!-- Track 01189768-dfbf-40a5-bf9f-b535abdcecbe -->
<edge id="cecbe-0" from="9fab2" to="763d6" shape="-2496131.91341,3464011.2853200007 -2496096.6506000003,3463962.0940799993" priority="-1" numLanes="1" speed="110.0" allow="rail rail_electric" spreadType="center" />
<edge id="cecbe-0-re" from="763d6" to="9fab2" shape="-2496096.6506000003,3463962.0940799993 -2496131.91341,3464011.2853200007" priority="-1" numLanes="1" speed="110.0" allow="rail rail_electric" spreadType="center" />
<!-- Track 69a60ffd-dddc-4e52-9af5-4c9468799403 -->
<edge id="99403-0" from="500ed" to="1c6af" shape="-2495593.77887,3463048.5656199995 -2495572.8213400003,3463024.2260299996" priority="-1" numLanes="1" speed="110.0" allow="rail rail_electric" spreadType="center" />
<edge id="99403-0-re" from="1c6af" to="500ed" shape="-2495572.8213400003,3463024.2260299996 -2495593.77887,3463048.5656199995" priority="-1" numLanes="1" speed="110.0" allow="rail rail_electric" spreadType="center" />
<!-- Track 0f79cd58-2e4b-46b4-b980-222b6057dc2a -->
<edge id="7dc2a-0" from="500ed" to="4eec2" shape="-2495593.77887,3463048.5656199995 -2495643.0004000003,3463115.443050001" priority="-1" numLanes="1" speed="110.0" allow="rail rail_electric" spreadType="center" />
<edge id="7dc2a-0-re" from="4eec2" to="500ed" shape="-2495643.0004000003,3463115.443050001 -2495593.77887,3463048.5656199995" priority="-1" numLanes="1" speed="110.0" allow="rail rail_electric" spreadType="center" />
<!-- Track 897f4f21-d760-4014-844d-cbaedf88375e -->
<edge id="8375e-0" from="1c6af" to="42976" shape="-2495572.8213400003,3463024.2260299996 -2495551.4765999997,3462986.0530600008" priority="-1" numLanes="1" speed="110.0" allow="rail rail_electric" spreadType="center" />
<edge id="8375e-0-re" from="42976" to="1c6af" shape="-2495551.4765999997,3462986.0530600008 -2495572.8213400003,3463024.2260299996" priority="-1" numLanes="1" speed="110.0" allow="rail rail_electric" spreadType="center" />
<!-- Track e67439d9-0b7f-482f-9770-1e78109a542d -->
<edge id="a542d-0" from="1c6af" to="763d6" shape="-2495572.8213400003,3463024.2260299996 -2496060.75423,3463900.6843599994 -2496096.6506000003,3463962.0940799993" priority="-1" numLanes="1" speed="110.0" allow="rail rail_electric" spreadType="center" />
<edge id="a542d-0-re" from="763d6" to="1c6af" shape="-2496096.6506000003,3463962.0940799993 -2496060.75423,3463900.6843599994 -2495572.8213400003,3463024.2260299996" priority="-1" numLanes="1" speed="110.0" allow="rail rail_electric" spreadType="center" />
<!-- Track d73343a6-df27-43c9-a05f-65d708e8cea3 -->
<edge id="8cea3-0" from="42976" to="28926" shape="-2495551.4765999997,3462986.0530600008 -2495336.3058,3462600.37651 -2495318.0454,3462566.56484" priority="-1" numLanes="1" speed="110.0" allow="rail rail_electric" spreadType="center" />
<edge id="8cea3-0-re" from="28926" to="42976" shape="-2495318.0454,3462566.56484 -2495336.3058,3462600.37651 -2495551.4765999997,3462986.0530600008" priority="-1" numLanes="1" speed="110.0" allow="rail rail_electric" spreadType="center" />
<!-- Track 62a9b2f7-fd21-4e3b-a085-854eb460ae3f -->
<edge id="0ae3f-0" from="42976" to="63296" shape="-2495551.4765999997,3462986.0530600008 -2495566.34365,3463036.3671899997" priority="-1" numLanes="1" speed="110.0" allow="rail rail_electric" spreadType="center" />
<edge id="0ae3f-0-re" from="63296" to="42976" shape="-2495566.34365,3463036.3671899997 -2495551.4765999997,3462986.0530600008" priority="-1" numLanes="1" speed="110.0" allow="rail rail_electric" spreadType="center" />
<!-- Track 7e0ef246-a69d-4da1-9cc8-3513969b45e6 -->
<edge id="b45e6-0" from="28926" to="2bd29" shape="-2495318.0454,3462566.56484 -2495275.3629099997,3462471.4147699997" priority="-1" numLanes="1" speed="110.0" allow="rail rail_electric" spreadType="center" />
<edge id="b45e6-0-re" from="2bd29" to="28926" shape="-2495275.3629099997,3462471.4147699997 -2495318.0454,3462566.56484" priority="-1" numLanes="1" speed="110.0" allow="rail rail_electric" spreadType="center" />
<!-- Track 5d2b665b-438d-4e37-a361-d9b49ca0053f -->
<edge id="0053f-0" from="28926" to="7fc7f" shape="-2495318.0454,3462566.56484 -2495261.22944,3462466.0143" priority="-1" numLanes="1" speed="110.0" allow="rail rail_electric" spreadType="center" />
<edge id="0053f-0-re" from="7fc7f" to="28926" shape="-2495261.22944,3462466.0143 -2495318.0454,3462566.56484" priority="-1" numLanes="1" speed="110.0" allow="rail rail_electric" spreadType="center" />
<!-- Track a6b876c7-4a07-4866-aede-f226c5204657 -->
<edge id="04657-0" from="2bd29" to="ed506" shape="-2495275.3629099997,3462471.4147699997 -2495247.65842,3462423.4483199995 -2495179.00108,3462297.0050300006 -2494949.94752,3461888.1476799995 -2494784.43721,3461589.2829" priority="-1" numLanes="1" speed="110.0" allow="rail rail_electric" spreadType="center" />
<edge id="04657-0-re" from="ed506" to="2bd29" shape="-2494784.43721,3461589.2829 -2494949.94752,3461888.1476799995 -2495179.00108,3462297.0050300006 -2495247.65842,3462423.4483199995 -2495275.3629099997,3462471.4147699997" priority="-1" numLanes="1" speed="110.0" allow="rail rail_electric" spreadType="center" />
<!-- Track ad098249-59ed-470f-93f8-3e9697139415 -->
<edge id="39415-0" from="2bd29" to="aa8e8" shape="-2495275.3629099997,3462471.4147699997 -2495302.56032,3462519.2630899996 -2495343.4118600003,3462577.7074100003" priority="-1" numLanes="1" speed="110.0" allow="rail rail_electric" spreadType="center" />
<edge id="39415-0-re" from="aa8e8" to="2bd29" shape="-2495343.4118600003,3462577.7074100003 -2495302.56032,3462519.2630899996 -2495275.3629099997,3462471.4147699997" priority="-1" numLanes="1" speed="110.0" allow="rail rail_electric" spreadType="center" />
<!-- Track 2dbde752-d149-4ac8-8ca4-0242c6f73c5e -->
<edge id="73c5e-0" from="b5d04" to="ce022" shape="-2503676.4045200003,3464880.5900599994 -2503635.0706700003,3465052.0235200003 -2503607.12248,3465120.9571400005 -2503579.73271,3465171.946249999 -2503552.3815200003,3465210.82446 -2503519.99755,3465253.85527 -2503484.10566,3465285.53331 -2503441.80859,3465312.84437 -2503393.6775,3465336.92815 -2503344.40879,3465354.9221400004 -2503290.9331799997,3465368.62108 -2503225.22822,3465381.620580001 -2503161.70919,3465388.0903699994 -2503114.7375499997,3465390.035460001 -2503064.22402,3465388.0879100002 -2503002.5785600003,3465382.1909800004 -2502939.97027,3465373.77052 -2502696.49747,3465323.1018000003" priority="-1" numLanes="1" speed="110.0" allow="rail rail_electric" spreadType="center" />
<edge id="73c5e-0-re" from="ce022" to="b5d04" shape="-2502696.49747,3465323.1018000003 -2502939.97027,3465373.77052 -2503002.5785600003,3465382.1909800004 -2503064.22402,3465388.0879100002 -2503114.7375499997,3465390.035460001 -2503161.70919,3465388.0903699994 -2503225.22822,3465381.620580001 -2503290.9331799997,3465368.62108 -2503344.40879,3465354.9221400004 -2503393.6775,3465336.92815 -2503441.80859,3465312.84437 -2503484.10566,3465285.53331 -2503519.99755,3465253.85527 -2503552.3815200003,3465210.82446 -2503579.73271,3465171.946249999 -2503607.12248,3465120.9571400005 -2503635.0706700003,3465052.0235200003 -2503676.4045200003,3464880.5900599994" priority="-1" numLanes="1" speed="110.0" allow="rail rail_electric" spreadType="center" />
<!-- Track 737433d1-8634-452b-9d94-ddcec75cb30f -->
<edge id="cb30f-0" from="e3897" to="47b6e" shape="-2504315.19839,3467381.2208900005 -2504196.30494,3467499.842049999 -2504114.68729,3467550.73412 -2504048.82027,3467584.3089000005 -2503977.56959,3467611.1882700007 -2503823.6388,3467651.6997599993 -2503736.82881,3467662.6912900005 -2503642.80157,3467670.1144399997 -2503560.23568,3467672.0382000003 -2503477.22757,3467666.7933900002 -2503415.06655,3467661.3092 -2503350.53566,3467653.1525299996 -2503249.2369,3467635.2567999996 -2502769.90934,3467539.5478499997" priority="-1" numLanes="1" speed="110.0" allow="rail rail_electric" spreadType="center" />
<edge id="cb30f-0-re" from="47b6e" to="e3897" shape="-2502769.90934,3467539.5478499997 -2503249.2369,3467635.2567999996 -2503350.53566,3467653.1525299996 -2503415.06655,3467661.3092 -2503477.22757,3467666.7933900002 -2503560.23568,3467672.0382000003 -2503642.80157,3467670.1144399997 -2503736.82881,3467662.6912900005 -2503823.6388,3467651.6997599993 -2503977.56959,3467611.1882700007 -2504048.82027,3467584.3089000005 -2504114.68729,3467550.73412 -2504196.30494,3467499.842049999 -2504315.19839,3467381.2208900005" priority="-1" numLanes="1" speed="110.0" allow="rail rail_electric" spreadType="center" />
<!-- Track 4a394f87-86ad-4f36-a66a-8080100f0ffa -->
<edge id="f0ffa-0" from="e3897" to="a1b0e" shape="-2504315.19839,3467381.2208900005 -2504239.28466,3467447.2822399996 -2504180.33148,3467493.5557199996 -2504100.13129,3467541.94929 -2504035.99351,3467573.0474900007 -2503962.7979800003,3467599.45806 -2503869.35323,3467622.69878 -2503813.91494,3467635.32814 -2503728.31624,3467647.142449999 -2503638.13174,3467653.1389799993 -2503560.65835,3467654.410940001 -2503473.71402,3467650.9798600003 -2503416.5269299997,3467645.70256 -2503362.1894300003,3467639.0051000006 -2503260.61771,3467621.4599900004 -2502347.22414,3467436.5157200005 -2502285.9478599997,3467423.9185300004 -2502080.05701,3467379.258509999 -2501552.0682800002,3467258.6395999994 -2501238.06836,3467195.82739" priority="-1" numLanes="1" speed="110.0" allow="rail rail_electric" spreadType="center" />
<edge id="f0ffa-0-re" from="a1b0e" to="e3897" shape="-2501238.06836,3467195.82739 -2501552.0682800002,3467258.6395999994 -2502080.05701,3467379.258509999 -2502285.9478599997,3467423.9185300004 -2502347.22414,3467436.5157200005 -2503260.61771,3467621.4599900004 -2503362.1894300003,3467639.0051000006 -2503416.5269299997,3467645.70256 -2503473.71402,3467650.9798600003 -2503560.65835,3467654.410940001 -2503638.13174,3467653.1389799993 -2503728.31624,3467647.142449999 -2503813.91494,3467635.32814 -2503869.35323,3467622.69878 -2503962.7979800003,3467599.45806 -2504035.99351,3467573.0474900007 -2504100.13129,3467541.94929 -2504180.33148,3467493.5557199996 -2504239.28466,3467447.2822399996 -2504315.19839,3467381.2208900005" priority="-1" numLanes="1" speed="110.0" allow="rail rail_electric" spreadType="center" />
<!-- Track a65ef498-1fd0-4bd0-bdbd-ba5e87b5a291 -->
<edge id="5a291-0" from="e3897" to="94df4" shape="-2504315.19839,3467381.2208900005 -2504374.91192,3467310.9570700005" priority="-1" numLanes="1" speed="110.0" allow="rail rail_electric" spreadType="center" />
<edge id="5a291-0-re" from="94df4" to="e3897" shape="-2504374.91192,3467310.9570700005 -2504315.19839,3467381.2208900005" priority="-1" numLanes="1" speed="110.0" allow="rail rail_electric" spreadType="center" />
<!-- Track f1ef8f71-537c-47ea-9dc2-7a14c8a7ef01 -->
<edge id="7ef01-0" from="47b6e" to="e2dce" shape="-2502769.90934,3467539.5478499997 -2502697.76023,3467525.5081900004" priority="-1" numLanes="1" speed="110.0" allow="rail rail_electric" spreadType="center" />
<edge id="7ef01-0-re" from="e2dce" to="47b6e" shape="-2502697.76023,3467525.5081900004 -2502769.90934,3467539.5478499997" priority="-1" numLanes="1" speed="110.0" allow="rail rail_electric" spreadType="center" />
<!-- Track d14f3a58-c21d-4561-be93-ff446edce411 -->
<edge id="ce411-0" from="47b6e" to="77be0" shape="-2502769.90934,3467539.5478499997 -2502871.4633400002,3467565.5168500002 -2502942.75788,3467580.7814099994" priority="-1" numLanes="1" speed="110.0" allow="rail rail_electric" spreadType="center" />
<edge id="ce411-0-re" from="77be0" to="47b6e" shape="-2502942.75788,3467580.7814099994 -2502871.4633400002,3467565.5168500002 -2502769.90934,3467539.5478499997" priority="-1" numLanes="1" speed="110.0" allow="rail rail_electric" spreadType="center" />
<!-- Track 9474b1d9-f776-493e-b217-17f8bf18ac5a -->
<edge id="8ac5a-0" from="e2dce" to="fb649" shape="-2502697.76023,3467525.5081900004 -2502271.8737000003,3467440.74873 -2501991.25064,3467384.1340299994 -2501754.26764,3467336.96999" priority="-1" numLanes="1" speed="110.0" allow="rail rail_electric" spreadType="center" />
<edge id="8ac5a-0-re" from="fb649" to="e2dce" shape="-2501754.26764,3467336.96999 -2501991.25064,3467384.1340299994 -2502271.8737000003,3467440.74873 -2502697.76023,3467525.5081900004" priority="-1" numLanes="1" speed="110.0" allow="rail rail_electric" spreadType="center" />
<!-- Track 1836cd56-3258-4d3a-96bb-6b2fcf81d4e7 -->
<edge id="1d4e7-0" from="e2dce" to="32f56" shape="-2502697.76023,3467525.5081900004 -2502585.30262,3467508.6943699997 -2502538.0035300003,3467500.4087799992" priority="-1" numLanes="1" speed="110.0" allow="rail rail_electric" spreadType="center" />
<edge id="1d4e7-0-re" from="32f56" to="e2dce" shape="-2502538.0035300003,3467500.4087799992 -2502585.30262,3467508.6943699997 -2502697.76023,3467525.5081900004" priority="-1" numLanes="1" speed="110.0" allow="rail rail_electric" spreadType="center" />
<!-- Track e61ab83b-4440-41b1-a4db-ac5f0a3ab380 -->