<?xml version="1.0" encoding="UTF-8"?>

<!-- generated on 2023-04-18 15:50:09 by Eclipse SUMO netconvert Version 1.12.0
<configuration xmlns:xsi="http://www.w3.org/2001/XMLSchema-instance" xsi:noNamespaceSchemaLocation="http://sumo.dlr.de/xsd/netconvertConfiguration.xsd">

    <input>
        <node-files value="sumo-config/test_with_fixed_points.nod.xml"/>
        <edge-files value="sumo-config/test_with_fixed_points.edg.xml"/>
        <connection-files value="sumo-config/test_with_fixed_points.con.xml"/>
    </input>

    <output>
        <output-file value="sumo-config/test_with_fixed_points.net.xml"/>
    </output>

    <railway>
        <railway.topology.repair value="true"/>
        <railway.topology.repair.connect-straight value="true"/>
        <railway.topology.repair.stop-turn value="true"/>
        <railway.topology.all-bidi value="false"/>
    </railway>

    <report>
        <aggregate-warnings value="5"/>
    </report>

</configuration>
-->

<net version="1.9" junctionCornerDetail="5" limitTurnSpeed="5.50" xmlns:xsi="http://www.w3.org/2001/XMLSchema-instance" xsi:noNamespaceSchemaLocation="http://sumo.dlr.de/xsd/net_file.xsd">

    <location netOffset="2506174.81,-3459405.32" convBoundary="0.00,0.00,12719.19,11737.42" origBoundary="-2506174.81,3459405.32,-2493455.62,3471142.74" projParameter="!"/>

    <edge id=":005d7_0" function="internal">
        <lane id=":005d7_0_0" index="0" allow="rail rail_electric" speed="0.10" length="0.10" shape="7116.39,6097.86 7116.39,6097.86"/>
    </edge>
    <edge id=":00718_0" function="internal" bidi=":00718_1">
        <lane id=":00718_0_0" index="0" allow="rail rail_electric" speed="110.00" length="27.58" shape="9140.57,5797.03 9139.93,5791.34 9139.02,5783.31 9138.24,5775.27 9137.99,5769.57"/>
    </edge>
    <edge id=":00718_1" function="internal" bidi=":00718_0">
        <lane id=":00718_1_0" index="0" allow="rail rail_electric" speed="110.00" length="27.58" shape="9137.99,5769.57 9138.24,5775.27 9139.02,5783.31 9139.93,5791.34 9140.57,5797.03"/>
    </edge>
    <edge id=":00718_2" function="internal" bidi=":00718_3">
        <lane id=":00718_2_0" index="0" allow="rail rail_electric" speed="110.00" length="27.59" shape="9137.99,5769.57 9137.19,5797.15"/>
    </edge>
    <edge id=":00718_3" function="internal" bidi=":00718_2">
        <lane id=":00718_3_0" index="0" allow="rail rail_electric" speed="110.00" length="27.59" shape="9137.19,5797.15 9137.99,5769.57"/>
    </edge>
    <edge id=":00b21_0" function="internal" bidi=":00b21_3">
        <lane id=":00b21_0_0" index="0" allow="rail rail_electric" speed="110.00" length="25.10" shape="9149.21,6312.20 9144.89,6336.93"/>
    </edge>
    <edge id=":00b21_1" function="internal" bidi=":00b21_2">
        <lane id=":00b21_1_0" index="0" allow="rail rail_electric" speed="110.00" length="25.10" shape="9145.81,6311.87 9145.76,6317.20 9145.70,6324.44 9145.46,6331.65 9144.89,6336.93"/>
    </edge>
    <edge id=":00b21_2" function="internal" bidi=":00b21_1">
        <lane id=":00b21_2_0" index="0" allow="rail rail_electric" speed="110.00" length="25.10" shape="9144.89,6336.93 9145.46,6331.65 9145.70,6324.44 9145.76,6317.20 9145.81,6311.87"/>
    </edge>
    <edge id=":00b21_3" function="internal" bidi=":00b21_0">
        <lane id=":00b21_3_0" index="0" allow="rail rail_electric" speed="110.00" length="25.10" shape="9144.89,6336.93 9149.21,6312.20"/>
    </edge>
    <edge id=":01890_0" function="internal" bidi=":01890_3">
        <lane id=":01890_0_0" index="0" allow="rail rail_electric" speed="110.00" length="44.25" shape="4019.07,8022.19 3975.16,8027.59"/>
    </edge>
    <edge id=":01890_1" function="internal" bidi=":01890_2">
        <lane id=":01890_1_0" index="0" allow="rail rail_electric" speed="110.00" length="44.25" shape="4018.55,8018.92 3975.16,8027.59"/>
    </edge>
    <edge id=":01890_2" function="internal" bidi=":01890_1">
        <lane id=":01890_2_0" index="0" allow="rail rail_electric" speed="110.00" length="44.25" shape="3975.16,8027.59 4018.55,8018.92"/>
    </edge>
    <edge id=":01890_3" function="internal" bidi=":01890_0">
        <lane id=":01890_3_0" index="0" allow="rail rail_electric" speed="110.00" length="44.25" shape="3975.16,8027.59 4019.07,8022.19"/>
    </edge>
    <edge id=":03484_0" function="internal" bidi=":03484_3">
        <lane id=":03484_0_0" index="0" allow="rail rail_electric" speed="110.00" length="53.45" shape="4698.50,6178.91 4645.54,6186.13"/>
    </edge>
    <edge id=":03484_1" function="internal" bidi=":03484_2">
        <lane id=":03484_1_0" index="0" allow="rail rail_electric" speed="110.00" length="53.45" shape="4697.95,6175.66 4645.54,6186.13"/>
    </edge>
    <edge id=":03484_2" function="internal" bidi=":03484_1">
        <lane id=":03484_2_0" index="0" allow="rail rail_electric" speed="110.00" length="53.45" shape="4645.54,6186.13 4697.95,6175.66"/>
    </edge>
    <edge id=":03484_3" function="internal" bidi=":03484_0">
        <lane id=":03484_3_0" index="0" allow="rail rail_electric" speed="110.00" length="53.45" shape="4645.54,6186.13 4698.50,6178.91"/>
    </edge>
    <edge id=":038b6_0" function="internal" bidi=":038b6_3">
        <lane id=":038b6_0_0" index="0" allow="rail rail_electric" speed="110.00" length="32.67" shape="9336.97,5382.05 9332.44,5386.69 9326.06,5394.15 9319.80,5401.75 9315.66,5406.78"/>
    </edge>
    <edge id=":038b6_1" function="internal" bidi=":038b6_2">
        <lane id=":038b6_1_0" index="0" allow="rail rail_electric" speed="110.00" length="32.68" shape="9336.97,5382.05 9332.12,5386.38 9324.98,5393.14 9317.90,5399.96 9313.21,5404.48"/>
    </edge>
    <edge id=":038b6_2" function="internal" bidi=":038b6_1">
        <lane id=":038b6_2_0" index="0" allow="rail rail_electric" speed="110.00" length="32.68" shape="9313.21,5404.48 9317.90,5399.96 9324.98,5393.14 9332.12,5386.38 9336.97,5382.05"/>
    </edge>
    <edge id=":038b6_3" function="internal" bidi=":038b6_0">
        <lane id=":038b6_3_0" index="0" allow="rail rail_electric" speed="110.00" length="32.67" shape="9315.66,5406.78 9319.80,5401.75 9326.06,5394.15 9332.44,5386.69 9336.97,5382.05"/>
    </edge>
    <edge id=":03f83_0" function="internal" bidi=":03f83_3">
        <lane id=":03f83_0_0" index="0" allow="rail rail_electric" speed="110.00" length="25.01" shape="10602.48,3582.72 10590.35,3604.59"/>
    </edge>
    <edge id=":03f83_1" function="internal" bidi=":03f83_2">
        <lane id=":03f83_1_0" index="0" allow="rail rail_electric" speed="110.00" length="25.00" shape="10602.48,3582.72 10599.54,3587.13 10595.22,3592.87 10590.78,3598.54 10587.50,3602.72"/>
    </edge>
    <edge id=":03f83_2" function="internal" bidi=":03f83_1">
        <lane id=":03f83_2_0" index="0" allow="rail rail_electric" speed="110.00" length="25.00" shape="10587.50,3602.72 10590.78,3598.54 10595.22,3592.87 10599.54,3587.13 10602.48,3582.72"/>
    </edge>
    <edge id=":03f83_3" function="internal" bidi=":03f83_0">
        <lane id=":03f83_3_0" index="0" allow="rail rail_electric" speed="110.00" length="25.01" shape="10590.35,3604.59 10602.48,3582.72"/>
    </edge>
    <edge id=":06850_0" function="internal" bidi=":06850_3">
        <lane id=":06850_0_0" index="0" allow="rail rail_electric" speed="110.00" length="24.47" shape="4454.67,7355.81 4453.34,7350.76 4451.15,7344.11 4448.83,7337.49 4447.10,7332.55"/>
    </edge>
    <edge id=":06850_1" function="internal" bidi=":06850_2">
        <lane id=":06850_1_0" index="0" allow="rail rail_electric" speed="110.00" length="24.47" shape="4454.67,7355.81 4450.41,7331.71"/>
    </edge>
    <edge id=":06850_2" function="internal" bidi=":06850_1">
        <lane id=":06850_2_0" index="0" allow="rail rail_electric" speed="110.00" length="24.47" shape="4450.41,7331.71 4454.67,7355.81"/>
    </edge>
    <edge id=":06850_3" function="internal" bidi=":06850_0">
        <lane id=":06850_3_0" index="0" allow="rail rail_electric" speed="110.00" length="24.47" shape="4447.10,7332.55 4448.83,7337.49 4451.15,7344.11 4453.34,7350.76 4454.67,7355.81"/>
    </edge>
    <edge id=":070e4_0" function="internal" bidi=":070e4_3">
        <lane id=":070e4_0_0" index="0" allow="rail rail_electric" speed="110.00" length="84.13" shape="5160.48,7842.26 5078.73,7862.11"/>
    </edge>
    <edge id=":070e4_1" function="internal" bidi=":070e4_2">
        <lane id=":070e4_1_0" index="0" allow="rail rail_electric" speed="110.00" length="84.13" shape="5160.48,7842.26 5078.02,7858.93"/>
    </edge>
    <edge id=":070e4_2" function="internal" bidi=":070e4_1">
        <lane id=":070e4_2_0" index="0" allow="rail rail_electric" speed="110.00" length="84.13" shape="5078.02,7858.93 5160.48,7842.26"/>
    </edge>
    <edge id=":070e4_3" function="internal" bidi=":070e4_0">
        <lane id=":070e4_3_0" index="0" allow="rail rail_electric" speed="110.00" length="84.13" shape="5078.73,7862.11 5160.48,7842.26"/>
    </edge>
    <edge id=":07f58_0" function="internal" bidi=":07f58_3">
        <lane id=":07f58_0_0" index="0" allow="rail rail_electric" speed="110.00" length="42.73" shape="11627.08,1834.86 11598.11,1866.26"/>
    </edge>
    <edge id=":07f58_1" function="internal" bidi=":07f58_2">
        <lane id=":07f58_1_0" index="0" allow="rail rail_electric" speed="110.00" length="42.73" shape="11624.55,1832.70 11598.11,1866.26"/>
    </edge>
    <edge id=":07f58_2" function="internal" bidi=":07f58_1">
        <lane id=":07f58_2_0" index="0" allow="rail rail_electric" speed="110.00" length="42.73" shape="11598.11,1866.26 11624.55,1832.70"/>
    </edge>
    <edge id=":07f58_3" function="internal" bidi=":07f58_0">
        <lane id=":07f58_3_0" index="0" allow="rail rail_electric" speed="110.00" length="42.73" shape="11598.11,1866.26 11627.08,1834.86"/>
    </edge>
    <edge id=":081b0_0" function="internal" bidi=":081b0_3">
        <lane id=":081b0_0_0" index="0" allow="rail rail_electric" speed="110.00" length="62.93" shape="7050.56,6552.63 6989.62,6568.34"/>
    </edge>
    <edge id=":081b0_1" function="internal" bidi=":081b0_2">
        <lane id=":081b0_1_0" index="0" allow="rail rail_electric" speed="110.00" length="62.93" shape="7050.56,6552.63 6988.88,6565.13"/>
    </edge>
    <edge id=":081b0_2" function="internal" bidi=":081b0_1">
        <lane id=":081b0_2_0" index="0" allow="rail rail_electric" speed="110.00" length="62.93" shape="6988.88,6565.13 7050.56,6552.63"/>
    </edge>
    <edge id=":081b0_3" function="internal" bidi=":081b0_0">
        <lane id=":081b0_3_0" index="0" allow="rail rail_electric" speed="110.00" length="62.93" shape="6989.62,6568.34 7050.56,6552.63"/>
    </edge>
    <edge id=":091ce_0" function="internal">
        <lane id=":091ce_0_0" index="0" allow="rail rail_electric" speed="110.00" length="57.65" shape="7446.22,5642.63 7390.43,5657.17"/>
    </edge>
    <edge id=":091ce_1" function="internal">
        <lane id=":091ce_1_0" index="0" allow="rail rail_electric" speed="110.00" length="57.66" shape="7446.22,5642.63 7389.69,5653.97"/>
    </edge>
    <edge id=":091ce_2" function="internal">
        <lane id=":091ce_2_0" index="0" allow="rail rail_electric" speed="110.00" length="57.66" shape="7389.69,5653.97 7446.23,5642.64"/>
    </edge>
    <edge id=":091ce_3" function="internal">
        <lane id=":091ce_3_0" index="0" allow="rail rail_electric" speed="110.00" length="57.65" shape="7390.43,5657.17 7446.23,5642.64"/>
    </edge>
    <edge id=":09973_0" function="internal">
        <lane id=":09973_0_0" index="0" allow="rail rail_electric" speed="0.10" length="0.10" shape="4524.13,7279.55 4524.13,7279.55"/>
    </edge>
    <edge id=":09aef_0" function="internal" bidi=":09aef_3">
        <lane id=":09aef_0_0" index="0" allow="rail rail_electric" speed="110.00" length="43.80" shape="5782.49,5979.50 5740.38,5991.55"/>
    </edge>
    <edge id=":09aef_1" function="internal" bidi=":09aef_2">
        <lane id=":09aef_1_0" index="0" allow="rail rail_electric" speed="110.00" length="43.79" shape="5782.49,5979.50 5739.59,5988.32"/>
    </edge>
    <edge id=":09aef_2" function="internal" bidi=":09aef_1">
        <lane id=":09aef_2_0" index="0" allow="rail rail_electric" speed="110.00" length="43.79" shape="5739.59,5988.32 5782.49,5979.50"/>
    </edge>
    <edge id=":09aef_3" function="internal" bidi=":09aef_0">
        <lane id=":09aef_3_0" index="0" allow="rail rail_electric" speed="110.00" length="43.80" shape="5740.38,5991.55 5782.49,5979.50"/>
    </edge>
    <edge id=":09d30_0" function="internal" bidi=":09d30_3">
        <lane id=":09d30_0_0" index="0" allow="rail rail_electric" speed="110.00" length="63.30" shape="8096.98,5504.38 8035.62,5519.93"/>
    </edge>
    <edge id=":09d30_1" function="internal" bidi=":09d30_2">
        <lane id=":09d30_1_0" index="0" allow="rail rail_electric" speed="110.00" length="63.30" shape="8096.98,5504.38 8034.90,5516.73"/>
    </edge>
    <edge id=":09d30_2" function="internal" bidi=":09d30_1">
        <lane id=":09d30_2_0" index="0" allow="rail rail_electric" speed="110.00" length="63.30" shape="8034.90,5516.73 8096.98,5504.38"/>
    </edge>
    <edge id=":09d30_3" function="internal" bidi=":09d30_0">
        <lane id=":09d30_3_0" index="0" allow="rail rail_electric" speed="110.00" length="63.30" shape="8035.62,5519.93 8096.98,5504.38"/>
    </edge>
    <edge id=":0a1c8_0" function="internal" bidi=":0a1c8_3">
        <lane id=":0a1c8_0_0" index="0" allow="rail rail_electric" speed="110.00" length="50.06" shape="1893.91,8010.12 1858.57,7974.67"/>
    </edge>
    <edge id=":0a1c8_1" function="internal" bidi=":0a1c8_2">
        <lane id=":0a1c8_1_0" index="0" allow="rail rail_electric" speed="110.00" length="50.06" shape="1896.16,8007.71 1889.15,8001.69 1877.16,7991.38 1865.28,7980.98 1858.57,7974.67"/>
    </edge>
    <edge id=":0a1c8_2" function="internal" bidi=":0a1c8_1">
        <lane id=":0a1c8_2_0" index="0" allow="rail rail_electric" speed="110.00" length="50.06" shape="1858.57,7974.67 1865.28,7980.98 1877.16,7991.38 1889.15,8001.69 1896.16,8007.71"/>
    </edge>
    <edge id=":0a1c8_3" function="internal" bidi=":0a1c8_0">
        <lane id=":0a1c8_3_0" index="0" allow="rail rail_electric" speed="110.00" length="50.06" shape="1858.57,7974.67 1893.91,8010.12"/>
    </edge>
    <edge id=":0b27d_0" function="internal" bidi=":0b27d_3">
        <lane id=":0b27d_0_0" index="0" allow="rail rail_electric" speed="110.00" length="71.67" shape="4479.04,7867.82 4408.68,7881.45"/>
    </edge>
    <edge id=":0b27d_1" function="internal" bidi=":0b27d_2">
        <lane id=":0b27d_1_0" index="0" allow="rail rail_electric" speed="110.00" length="71.68" shape="4479.04,7867.82 4408.12,7878.20"/>
    </edge>
    <edge id=":0b27d_2" function="internal" bidi=":0b27d_1">
        <lane id=":0b27d_2_0" index="0" allow="rail rail_electric" speed="110.00" length="71.68" shape="4408.12,7878.20 4479.04,7867.82"/>
    </edge>
    <edge id=":0b27d_3" function="internal" bidi=":0b27d_0">
        <lane id=":0b27d_3_0" index="0" allow="rail rail_electric" speed="110.00" length="71.67" shape="4408.68,7881.45 4479.04,7867.82"/>
    </edge>
    <edge id=":0b97c_0" function="internal" bidi=":0b97c_3">
        <lane id=":0b97c_0_0" index="0" allow="rail rail_electric" speed="110.00" length="27.15" shape="4055.74,7230.69 4055.52,7225.04 4055.19,7217.11 4054.76,7209.20 4054.20,7203.59"/>
    </edge>
    <edge id=":0b97c_1" function="internal" bidi=":0b97c_2">
        <lane id=":0b97c_1_0" index="0" allow="rail rail_electric" speed="110.00" length="27.15" shape="4059.11,7230.29 4054.20,7203.59"/>
    </edge>
    <edge id=":0b97c_2" function="internal" bidi=":0b97c_1">
        <lane id=":0b97c_2_0" index="0" allow="rail rail_electric" speed="110.00" length="27.15" shape="4054.20,7203.59 4059.11,7230.29"/>
    </edge>
    <edge id=":0b97c_3" function="internal" bidi=":0b97c_0">
        <lane id=":0b97c_3_0" index="0" allow="rail rail_electric" speed="110.00" length="27.15" shape="4054.20,7203.59 4054.76,7209.20 4055.19,7217.11 4055.52,7225.04 4055.74,7230.69"/>
    </edge>
    <edge id=":0c0ae_0" function="internal" bidi=":0c0ae_3">
        <lane id=":0c0ae_0_0" index="0" allow="rail rail_electric" speed="110.00" length="45.07" shape="12183.21,744.50 12164.25,785.39"/>
    </edge>
    <edge id=":0c0ae_1" function="internal" bidi=":0c0ae_2">
        <lane id=":0c0ae_1_0" index="0" allow="rail rail_electric" speed="110.00" length="45.08" shape="12183.21,744.50 12161.30,783.89"/>
    </edge>
    <edge id=":0c0ae_2" function="internal" bidi=":0c0ae_1">
        <lane id=":0c0ae_2_0" index="0" allow="rail rail_electric" speed="110.00" length="45.08" shape="12161.30,783.89 12183.21,744.50"/>
    </edge>
    <edge id=":0c0ae_3" function="internal" bidi=":0c0ae_0">
        <lane id=":0c0ae_3_0" index="0" allow="rail rail_electric" speed="110.00" length="45.07" shape="12164.25,785.39 12183.21,744.50"/>
    </edge>
    <edge id=":0d380_0" function="internal" bidi=":0d380_3">
        <lane id=":0d380_0_0" index="0" allow="rail rail_electric" speed="110.00" length="32.86" shape="11453.64,2061.35 11434.94,2088.37"/>
    </edge>
    <edge id=":0d380_1" function="internal" bidi=":0d380_2">
        <lane id=":0d380_1_0" index="0" allow="rail rail_electric" speed="110.00" length="32.86" shape="11450.79,2059.59 11434.94,2088.37"/>
    </edge>
    <edge id=":0d380_2" function="internal" bidi=":0d380_1">
        <lane id=":0d380_2_0" index="0" allow="rail rail_electric" speed="110.00" length="32.86" shape="11434.94,2088.37 11450.79,2059.59"/>
    </edge>
    <edge id=":0d380_3" function="internal" bidi=":0d380_0">
        <lane id=":0d380_3_0" index="0" allow="rail rail_electric" speed="110.00" length="32.86" shape="11434.94,2088.37 11453.64,2061.35"/>
    </edge>
    <edge id=":0e16b_0" function="internal">
        <lane id=":0e16b_0_0" index="0" allow="rail rail_electric" speed="0.10" length="0.10" shape="8271.50,5268.15 8271.50,5268.15"/>
    </edge>
    <edge id=":0e690_0" function="internal" bidi=":0e690_3">
        <lane id=":0e690_0_0" index="0" allow="rail rail_electric" speed="110.00" length="67.73" shape="6060.07,5903.66 5994.37,5920.12"/>
    </edge>
    <edge id=":0e690_1" function="internal" bidi=":0e690_2">
        <lane id=":0e690_1_0" index="0" allow="rail rail_electric" speed="110.00" length="67.71" shape="6060.07,5903.66 5993.67,5916.91"/>
    </edge>
    <edge id=":0e690_2" function="internal" bidi=":0e690_1">
        <lane id=":0e690_2_0" index="0" allow="rail rail_electric" speed="110.00" length="67.71" shape="5993.67,5916.91 6060.07,5903.66"/>
    </edge>
    <edge id=":0e690_3" function="internal" bidi=":0e690_0">
        <lane id=":0e690_3_0" index="0" allow="rail rail_electric" speed="110.00" length="67.73" shape="5994.37,5920.12 6060.07,5903.66"/>
    </edge>
    <edge id=":0ef35_0" function="internal">
        <lane id=":0ef35_0_0" index="0" allow="rail rail_electric" speed="0.10" length="0.10" shape="2498.41,5475.27 2498.41,5475.27"/>
    </edge>
    <edge id=":0fb58_0" function="internal">
        <lane id=":0fb58_0_0" index="0" allow="rail rail_electric" speed="0.10" length="0.10" shape="4378.20,7171.53 4378.20,7171.53"/>
    </edge>
    <edge id=":11032_0" function="internal" bidi=":11032_3">
        <lane id=":11032_0_0" index="0" allow="rail rail_electric" speed="110.00" length="29.71" shape="12158.66,873.08 12151.51,901.92"/>
    </edge>
    <edge id=":11032_1" function="internal" bidi=":11032_2">
        <lane id=":11032_1_0" index="0" allow="rail rail_electric" speed="110.00" length="29.71" shape="12158.66,873.08 12148.29,900.92"/>
    </edge>
    <edge id=":11032_2" function="internal" bidi=":11032_1">
        <lane id=":11032_2_0" index="0" allow="rail rail_electric" speed="110.00" length="29.71" shape="12148.29,900.92 12158.66,873.08"/>
    </edge>
    <edge id=":11032_3" function="internal" bidi=":11032_0">
        <lane id=":11032_3_0" index="0" allow="rail rail_electric" speed="110.00" length="29.71" shape="12151.51,901.92 12158.66,873.08"/>
    </edge>
    <edge id=":1158d_0" function="internal" bidi=":1158d_3">
        <lane id=":1158d_0_0" index="0" allow="rail rail_electric" speed="110.00" length="29.35" shape="9871.00,2614.12 9869.19,2619.82 9866.92,2628.20 9864.75,2636.61 9863.25,2642.42"/>
    </edge>
    <edge id=":1158d_1" function="internal" bidi=":1158d_2">
        <lane id=":1158d_1_0" index="0" allow="rail rail_electric" speed="110.00" length="29.36" shape="9871.00,2614.12 9860.05,2641.35"/>
    </edge>
    <edge id=":1158d_2" function="internal" bidi=":1158d_1">
        <lane id=":1158d_2_0" index="0" allow="rail rail_electric" speed="110.00" length="29.36" shape="9860.05,2641.35 9871.00,2614.12"/>
    </edge>
    <edge id=":1158d_3" function="internal" bidi=":1158d_0">
        <lane id=":1158d_3_0" index="0" allow="rail rail_electric" speed="110.00" length="29.35" shape="9863.25,2642.42 9864.75,2636.61 9866.92,2628.20 9869.19,2619.82 9871.00,2614.12"/>
    </edge>
    <edge id=":12243_0" function="internal" bidi=":12243_3">
        <lane id=":12243_0_0" index="0" allow="rail rail_electric" speed="110.00" length="66.05" shape="5711.78,8099.83 5646.27,8108.28"/>
    </edge>
    <edge id=":12243_1" function="internal" bidi=":12243_2">
        <lane id=":12243_1_0" index="0" allow="rail rail_electric" speed="110.00" length="66.05" shape="5711.27,8096.56 5646.27,8108.28"/>
    </edge>
    <edge id=":12243_2" function="internal" bidi=":12243_1">
        <lane id=":12243_2_0" index="0" allow="rail rail_electric" speed="110.00" length="66.05" shape="5646.27,8108.28 5711.27,8096.56"/>
    </edge>
    <edge id=":12243_3" function="internal" bidi=":12243_0">
        <lane id=":12243_3_0" index="0" allow="rail rail_electric" speed="110.00" length="66.05" shape="5646.27,8108.28 5711.78,8099.83"/>
    </edge>
    <edge id=":1272d_0" function="internal" bidi=":1272d_3">
        <lane id=":1272d_0_0" index="0" allow="rail rail_electric" speed="110.00" length="28.05" shape="10547.49,3688.82 10544.01,3693.45 10539.07,3700.04 10534.22,3706.70 10531.03,3711.52"/>
    </edge>
    <edge id=":1272d_1" function="internal" bidi=":1272d_2">
        <lane id=":1272d_1_0" index="0" allow="rail rail_electric" speed="110.00" length="28.05" shape="10544.65,3686.99 10531.03,3711.52"/>
    </edge>
    <edge id=":1272d_2" function="internal" bidi=":1272d_1">
        <lane id=":1272d_2_0" index="0" allow="rail rail_electric" speed="110.00" length="28.05" shape="10531.03,3711.52 10544.65,3686.99"/>
    </edge>
    <edge id=":1272d_3" function="internal" bidi=":1272d_0">
        <lane id=":1272d_3_0" index="0" allow="rail rail_electric" speed="110.00" length="28.05" shape="10531.03,3711.52 10534.22,3706.70 10539.07,3700.04 10544.01,3693.45 10547.49,3688.82"/>
    </edge>
    <edge id=":1285c_0" function="internal" bidi=":1285c_3">
        <lane id=":1285c_0_0" index="0" allow="rail rail_electric" speed="110.00" length="31.58" shape="10060.37,4581.60 10056.62,4586.72 10051.05,4594.36 10045.58,4602.07 10042.14,4607.38"/>
    </edge>
    <edge id=":1285c_1" function="internal" bidi=":1285c_2">
        <lane id=":1285c_1_0" index="0" allow="rail rail_electric" speed="110.00" length="31.58" shape="10057.53,4579.80 10042.14,4607.38"/>
    </edge>
    <edge id=":1285c_2" function="internal" bidi=":1285c_1">
        <lane id=":1285c_2_0" index="0" allow="rail rail_electric" speed="110.00" length="31.58" shape="10042.14,4607.38 10057.53,4579.80"/>
    </edge>
    <edge id=":1285c_3" function="internal" bidi=":1285c_0">
        <lane id=":1285c_3_0" index="0" allow="rail rail_electric" speed="110.00" length="31.58" shape="10042.14,4607.38 10045.58,4602.07 10051.05,4594.36 10056.62,4586.72 10060.37,4581.60"/>
    </edge>
    <edge id=":138f6_0" function="internal" bidi=":138f6_3">
        <lane id=":138f6_0_0" index="0" allow="rail rail_electric" speed="110.00" length="57.68" shape="7374.38,7962.74 7318.54,7977.18"/>
    </edge>
    <edge id=":138f6_1" function="internal" bidi=":138f6_2">
        <lane id=":138f6_1_0" index="0" allow="rail rail_electric" speed="110.00" length="57.68" shape="7374.38,7962.74 7317.80,7973.98"/>
    </edge>
    <edge id=":138f6_2" function="internal" bidi=":138f6_1">
        <lane id=":138f6_2_0" index="0" allow="rail rail_electric" speed="110.00" length="57.68" shape="7317.80,7973.98 7374.38,7962.74"/>
    </edge>
    <edge id=":138f6_3" function="internal" bidi=":138f6_0">
        <lane id=":138f6_3_0" index="0" allow="rail rail_electric" speed="110.00" length="57.68" shape="7318.54,7977.18 7374.38,7962.74"/>
    </edge>
    <edge id=":13cd8_0" function="internal">
        <lane id=":13cd8_0_0" index="0" allow="rail rail_electric" speed="0.10" length="0.10" shape="4034.21,7603.94 4034.21,7603.94"/>
    </edge>
    <edge id=":14d01_0" function="internal" bidi=":14d01_3">
        <lane id=":14d01_0_0" index="0" allow="rail rail_electric" speed="110.00" length="26.60" shape="9053.40,5613.74 9034.87,5632.82"/>
    </edge>
    <edge id=":14d01_1" function="internal" bidi=":14d01_2">
        <lane id=":14d01_1_0" index="0" allow="rail rail_electric" speed="110.00" length="26.60" shape="9053.40,5613.74 9049.24,5617.41 9043.18,5622.21 9037.02,5626.91 9032.60,5630.29"/>
    </edge>
    <edge id=":14d01_2" function="internal" bidi=":14d01_1">
        <lane id=":14d01_2_0" index="0" allow="rail rail_electric" speed="110.00" length="26.60" shape="9032.60,5630.29 9037.02,5626.91 9043.18,5622.21 9049.24,5617.41 9053.40,5613.74"/>
    </edge>
    <edge id=":14d01_3" function="internal" bidi=":14d01_0">
        <lane id=":14d01_3_0" index="0" allow="rail rail_electric" speed="110.00" length="26.60" shape="9034.87,5632.82 9053.40,5613.74"/>
    </edge>
    <edge id=":153e1_0" function="internal" bidi=":153e1_3">
        <lane id=":153e1_0_0" index="0" allow="rail rail_electric" speed="110.00" length="47.00" shape="8180.52,5487.26 8135.25,5499.92"/>
    </edge>
    <edge id=":153e1_1" function="internal" bidi=":153e1_2">
        <lane id=":153e1_1_0" index="0" allow="rail rail_electric" speed="110.00" length="47.00" shape="8180.52,5487.26 8134.47,5496.70"/>
    </edge>
    <edge id=":153e1_2" function="internal" bidi=":153e1_1">
        <lane id=":153e1_2_0" index="0" allow="rail rail_electric" speed="110.00" length="47.00" shape="8134.47,5496.70 8180.52,5487.26"/>
    </edge>
    <edge id=":153e1_3" function="internal" bidi=":153e1_0">
        <lane id=":153e1_3_0" index="0" allow="rail rail_electric" speed="110.00" length="47.00" shape="8135.25,5499.92 8180.52,5487.26"/>
    </edge>
    <edge id=":1609e_0" function="internal" bidi=":1609e_3">
        <lane id=":1609e_0_0" index="0" allow="rail rail_electric" speed="110.00" length="25.76" shape="9037.21,6242.28 9036.31,6236.93 9034.72,6229.66 9033.01,6222.40 9031.76,6217.11"/>
    </edge>
    <edge id=":1609e_1" function="internal" bidi=":1609e_2">
        <lane id=":1609e_1_0" index="0" allow="rail rail_electric" speed="110.00" length="25.76" shape="9037.21,6242.28 9035.13,6216.60"/>
    </edge>
    <edge id=":1609e_2" function="internal" bidi=":1609e_1">
        <lane id=":1609e_2_0" index="0" allow="rail rail_electric" speed="110.00" length="25.76" shape="9035.13,6216.60 9037.21,6242.28"/>
    </edge>
    <edge id=":1609e_3" function="internal" bidi=":1609e_0">
        <lane id=":1609e_3_0" index="0" allow="rail rail_electric" speed="110.00" length="25.76" shape="9031.76,6217.11 9033.01,6222.40 9034.72,6229.66 9036.31,6236.93 9037.21,6242.28"/>
    </edge>
    <edge id=":166fc_0" function="internal" bidi=":166fc_3">
        <lane id=":166fc_0_0" index="0" allow="rail rail_electric" speed="110.00" length="20.82" shape="4095.24,7224.56 4095.24,7219.89 4095.25,7214.14 4095.13,7208.39 4094.72,7203.76"/>
    </edge>
    <edge id=":166fc_1" function="internal" bidi=":166fc_2">
        <lane id=":166fc_1_0" index="0" allow="rail rail_electric" speed="110.00" length="20.82" shape="4098.67,7224.20 4094.72,7203.76"/>
    </edge>
    <edge id=":166fc_2" function="internal" bidi=":166fc_1">
        <lane id=":166fc_2_0" index="0" allow="rail rail_electric" speed="110.00" length="20.82" shape="4094.72,7203.76 4098.67,7224.20"/>
    </edge>
    <edge id=":166fc_3" function="internal" bidi=":166fc_0">
        <lane id=":166fc_3_0" index="0" allow="rail rail_electric" speed="110.00" length="20.82" shape="4094.72,7203.76 4095.13,7208.39 4095.25,7214.14 4095.24,7219.89 4095.24,7224.56"/>
    </edge>
    <edge id=":1706d_0" function="internal" bidi=":1706d_3">
        <lane id=":1706d_0_0" index="0" allow="rail rail_electric" speed="110.00" length="71.12" shape="6956.08,6131.98 6885.37,6139.61"/>
    </edge>
    <edge id=":1706d_1" function="internal" bidi=":1706d_2">
        <lane id=":1706d_1_0" index="0" allow="rail rail_electric" speed="110.00" length="71.12" shape="6956.08,6131.98 6885.10,6136.35"/>
    </edge>
    <edge id=":1706d_2" function="internal" bidi=":1706d_1">
        <lane id=":1706d_2_0" index="0" allow="rail rail_electric" speed="110.00" length="71.12" shape="6885.10,6136.35 6956.08,6131.98"/>
    </edge>
    <edge id=":1706d_3" function="internal" bidi=":1706d_0">
        <lane id=":1706d_3_0" index="0" allow="rail rail_electric" speed="110.00" length="71.12" shape="6885.37,6139.61 6956.08,6131.98"/>
    </edge>
    <edge id=":1717f_0" function="internal">
        <lane id=":1717f_0_0" index="0" allow="rail rail_electric" speed="0.10" length="0.10" shape="3748.54,7166.34 3748.54,7166.34"/>
    </edge>
    <edge id=":17b92_0" function="internal" bidi=":17b92_3">
        <lane id=":17b92_0_0" index="0" allow="rail rail_electric" speed="110.00" length="56.55" shape="5160.18,6124.21 5104.01,6130.75"/>
    </edge>
    <edge id=":17b92_1" function="internal" bidi=":17b92_2">
        <lane id=":17b92_1_0" index="0" allow="rail rail_electric" speed="110.00" length="56.55" shape="5159.71,6120.96 5104.01,6130.75"/>
    </edge>
    <edge id=":17b92_2" function="internal" bidi=":17b92_1">