<nodes>
<node id="505c7" x="-2502198.12597" y="3467432.6135300007" type="priority"/>
<node id="1aaf4" x="-2502011.2665299997" y="3467395.2331499998" type="priority"/>
<node id="1ce6d" x="-2501206.74259" y="3467286.4816500004" type="priority"/>
<node id="0c984" x="-2501015.8400600003" y="3467247.873880001" type="priority"/>
<node id="a1e5c" x="-2498540.54764" y="3466763.4935800005" type="priority"/>
<node id="b9d33" x="-2498268.72423" y="3466698.8420899995" type="priority"/>
<node id="8258a" x="-2497040.4622299997" y="3464885.77458" type="priority"/>
<node id="449a9" x="-2496162.36355" y="3464067.9474400003" type="priority"/>
<node id="9fab2" x="-2496131.91341" y="3464011.2853200007" type="priority"/>
<node id="500ed" x="-2495593.77887" y="3463048.5656199995" type="priority"/>
<node id="1c6af" x="-2495572.8213400003" y="3463024.2260299996" type="priority"/>
<node id="42976" x="-2495551.4765999997" y="3462986.0530600008" type="priority"/>
<node id="28926" x="-2495318.0454" y="3462566.56484" type="priority"/>
<node id="2bd29" x="-2495275.3629099997" y="3462471.4147699997" type="priority"/>
<node id="b5d04" x="-2503676.4045200003" y="3464880.5900599994" type="priority"/>
<node id="e3897" x="-2504315.19839" y="3467381.2208900005" type="priority"/>
<node id="47b6e" x="-2502769.90934" y="3467539.5478499997" type="priority"/>
<node id="e2dce" x="-2502697.76023" y="3467525.5081900004" type="priority"/>
<node id="6470b" x="-2502331.08634" y="3465252.72023" type="priority"/>
<node id="92704" x="-2497083.5450299997" y="3465548.59633" type="priority"/>
<node id="4030b" x="-2497069.4324000003" y="3465359.2512100004" type="priority"/>
<node id="b8454" x="-2497065.81261" y="3465317.8648099992" type="priority"/>
<node id="4719f" x="-2497041.4403999997" y="3464952.8688200004" type="priority"/>
<node id="4c374" x="-2496371.0847" y="3462215.15993" type="priority"/>
<node id="4921f" x="-2500331.6222900003" y="3467665.0683699995" type="priority"/>
<node id="89daf" x="-2498930.27734" y="3467393.8571700007" type="priority"/>
<node id="2260d" x="-2499734.43167" y="3467597.52125" type="priority"/>
<node id="6497e" x="-2498801.9523799997" y="3467368.355939999" type="priority"/>
<node id="8cfd7" x="-2498673.67217" y="3467342.9182900004" type="priority"/>
<node id="e144d" x="-2498633.76446" y="3467334.75866" type="priority"/>
<node id="dede9" x="-2498322.0898700003" y="3467272.36658" type="priority"/>
<node id="12acb" x="-2497075.66672" y="3466204.615700001" type="priority"/>
<node id="cd4b4" x="-2497061.95131" y="3465998.2454199996" type="priority"/>
<node id="e584b" x="-2497046.6862500003" y="3465886.4259600006" type="priority"/>
<node id="42187" x="-2496839.14179" y="3464788.3996200003" type="priority"/>
<node id="dfa93" x="-2497034.39645" y="3465095.25285" type="priority"/>
<node id="3243b" x="-2497034.47669" y="3465113.873710001" type="priority"/>
<node id="5af53" x="-2497036.89041" y="3465176.5016099997" type="priority"/>
<node id="c83f9" x="-2498474.02322" y="3467296.3645699993" type="priority"/>
<node id="2cd82" x="-2498502.8837200003" y="3467301.8339099996" type="priority"/>
<node id="e94dc" x="-2499122.97274" y="3467285.51568" type="priority"/>
<node id="6650a" x="-2500467.12548" y="3467481.4548000004" type="priority"/>
<node id="0815c" x="-2500621.27961" y="3467522.0177999996" type="priority"/>
<node id="5d8a4" x="-2500688.6975600002" y="3467535.5087400004" type="priority"/>
<node id="b6c8c" x="-2499058.30621" y="3467298.4471199997" type="priority"/>
<node id="b673b" x="-2499185.6097999997" y="3467278.682840001" type="priority"/>
<node id="606a0" x="-2500527.03651" y="3467513.374709999" type="priority"/>
<node id="89c80" x="-2500794.82873" y="3467557.03087" type="priority"/>
<node id="04c09" x="-2497081.37168" y="3466118.7248599995" type="priority"/>
<node id="00ad7" x="-2497079.51338" y="3466093.0951199997" type="priority"/>
<node id="9e8e8" x="-2497044.27215" y="3465809.05411" type="priority"/>
<node id="98506" x="-2497031.56707" y="3465228.4608699996" type="priority"/>
<node id="7bc6f" x="-2501328.4789" y="3467357.3175099995" type="priority"/>
<node id="0fa7a" x="-2501684.7521200003" y="3467394.7215800006" type="priority"/>
<node id="168d9" x="-2500242.0377700003" y="3467093.765179999" type="priority"/>
<node id="4c1b2" x="-2500319.68061" y="3467109.52558" type="priority"/>
<node id="fb09a" x="-2501777.8962399997" y="3467364.0153800007" type="priority"/>
<node id="fb649" x="-2501754.26764" y="3467336.96999" type="priority"/>
<node id="4cd97" x="-2500035.81523" y="3467033.3977300003" type="priority"/>
<node id="c0ada" x="-2499987.26069" y="3467020.5960600004" type="priority"/>
<node id="8afd1" x="-2501657.2092" y="3467317.6856200006" type="priority"/>
<node id="ea2fd" x="-2498792.8139" y="3466804.06762" type="priority"/>
<node id="9fe24" x="-2498747.89618" y="3466795.468219999" type="priority"/>
<node id="6137d" x="-2498576.53387" y="3466770.6508099996" type="priority"/>
<node id="1b846" x="-2504532.13578" y="3467134.5772699993" type="priority"/>
<node id="77be0" x="-2502942.75788" y="3467580.7814099994" type="priority"/>
<node id="32f56" x="-2502538.0035300003" y="3467500.4087799992" type="priority"/>
<node id="a1b0e" x="-2501238.06836" y="3467195.82739" type="priority"/>
<node id="a906c" x="-2500086.62012" y="3466993.1047600005" type="priority"/>
<node id="915b7" x="-2497145.9843800003" y="3466029.3685999997" type="priority"/>
<node id="86405" x="-2497088.9501799997" y="3465468.28197" type="priority"/>
<node id="ee8bd" x="-2497086.71548" y="3465444.6221200004" type="priority"/>
<node id="0443b" x="-2497048.08977" y="3464789.196489999" type="priority"/>
<node id="6a591" x="-2501019.44845" y="3467145.352019999" type="priority"/>
<node id="7aeb6" x="-2500964.01779" y="3467134.3948999997" type="priority"/>
<node id="737f8" x="-2500945.8398" y="3467130.38342" type="priority"/>
<node id="77dae" x="-2500537.1669" y="3467041.73993" type="priority"/>
<node id="f3e49" x="-2502140.60759" y="3467009.258269999" type="priority"/>
<node id="9ca7c" x="-2501902.6682700003" y="3467155.39628" type="priority"/>
<node id="64aa0" x="-2501876.69118" y="3467167.9616199993" type="priority"/>
<node id="0d6e9" x="-2502296.84345" y="3466985.267449999" type="priority"/>
<node id="68a54" x="-2501697.2763400003" y="3467273.44094" type="priority"/>
<node id="54ddb" x="-2501650.68157" y="3466684.869720001" type="priority"/>
<node id="5874c" x="-2501624.06073" y="3466829.6778999995" type="priority"/>
<node id="1407c" x="-2501680.71387" y="3466373.8661100008" type="priority"/>
<node id="b2b0a" x="-2501493.29563" y="3467121.0775799993" type="priority"/>
<node id="0d863" x="-2501744.29" y="3466530.6026600003" type="priority"/>
<node id="40207" x="-2501710.3914900003" y="3466704.9391900003" type="priority"/>
<node id="456c9" x="-2501529.19018" y="3467101.7202700004" type="priority"/>
<node id="05938" x="-2501922.0697999997" y="3466567.3958199993" type="priority"/>
<node id="87c0f" x="-2501337.1452200003" y="3467201.3487" type="priority"/>
<node id="cd80a" x="-2501763.68376" y="3466533.93681" type="priority"/>
<node id="c473c" x="-2501720.43328" y="3466759.5321900006" type="priority"/>
<node id="1d427" x="-2501712.36094" y="3466804.2715799995" type="priority"/>
<node id="9df19" x="-2501706.88193" y="3466830.9764900003" type="priority"/>
<node id="4ac61" x="-2501125.7703299997" y="3467160.1818899997" type="priority"/>
<node id="50a8d" x="-2501777.44502" y="3466536.7739899997" type="priority"/>
<node id="886d6" x="-2502264.2091800002" y="3466495.9952099994" type="priority"/>
<node id="4e310" x="-2502179.0633300003" y="3466795.7862" type="priority"/>
<node id="89c88" x="-2502426.18147" y="3466630.327129999" type="priority"/>
<node id="aa073" x="-2502396.21012" y="3466792.4429100007" type="priority"/>
<node id="67cb4" x="-2502347.01175" y="3466997.351020001" type="priority"/>
<node id="3f040" x="-2502196.3080200003" y="3466621.11228" type="priority"/>
<node id="c6715" x="-2502193.4616400003" y="3466631.6262599993" type="priority"/>
<node id="bfc04" x="-2502143.6217400003" y="3466897.5913699996" type="priority"/>
<node id="774f9" x="-2502032.9887699997" y="3467060.3857899997" type="priority"/>
<node id="f4112" x="-2502104.20205" y="3466697.8126599994" type="priority"/>
<node id="88106" x="-2502059.85635" y="3466821.65343" type="priority"/>
<node id="84199" x="-2502175.51345" y="3466423.78682" type="priority"/>
<node id="cdeeb" x="-2502115.32995" y="3466748.0320500005" type="priority"/>
<node id="2e2c2" x="-2502101.5800099997" y="3466817.30648" type="priority"/>
<node id="958e4" x="-2501971.20951" y="3467098.5233900007" type="priority"/>
<node id="1cd4b" x="-2501319.76372" y="3466113.17334" type="priority"/>
<node id="ce8ad" x="-2500517.83223" y="3465953.21789" type="priority"/>
<node id="6727b" x="-2500494.9040900003" y="3465948.763630001" type="priority"/>
<node id="fc8ff" x="-2499245.89989" y="3465699.1646599993" type="priority"/>
<node id="b6fc7" x="-2499165.49418" y="3465683.0554300006" type="priority"/>
<node id="5766f" x="-2497204.3005" y="3465104.38146" type="priority"/>
<node id="2391b" x="-2497169.65367" y="3465068.721070001" type="priority"/>
<node id="fd118" x="-2497122.5301099997" y="3465020.2126700003" type="priority"/>
<node id="fc245" x="-2497092.33316" y="3464988.91354" type="priority"/>
<node id="74d26" x="-2502163.11663" y="3466615.9578099996" type="priority"/>
<node id="15cee" x="-2502146.38028" y="3466692.4377500005" type="priority"/>
<node id="84c30" x="-2502004.11565" y="3467079.2237100005" type="priority"/>
<node id="a213a" x="-2501946.25592" y="3467119.972960001" type="priority"/>
<node id="dd04c" x="-2502035.17951" y="3466953.7202499993" type="priority"/>
<node id="8983f" x="-2502039.67031" y="3466815.5228400007" type="priority"/>
<node id="fcb58" x="-2502415.72564" y="3466534.42622" type="priority"/>
<node id="13bd9" x="-2502392.3781000003" y="3466637.4769800007" type="priority"/>
<node id="c18cf" x="-2502366.11308" y="3466506.68007" type="priority"/>
<node id="4cb6f" x="-2502373.0581900002" y="3466698.882820001" type="priority"/>
<node id="f6e71" x="-2502371.8654899998" y="3466743.870719999" type="priority"/>
<node id="f3410" x="-2502327.8563900003" y="3467091.0930199996" type="priority"/>
<node id="de09e" x="-2502155.4825299997" y="3466418.8656600006" type="priority"/>
<node id="5064b" x="-2502120.34828" y="3466610.4782800004" type="priority"/>
<node id="1c902" x="-2502004.72549" y="3467057.4744700007" type="priority"/>
<node id="a3a1a" x="-2502274.90952" y="3466441.9310500007" type="priority"/>
<node id="8c816" x="-2502241.55301" y="3466610.4527400006" type="priority"/>
<node id="15820" x="-2502405.61819" y="3466514.8940900005" type="priority"/>
<node id="b61a6" x="-2502382.2487399997" y="3466689.5297" type="priority"/>
<node id="f4e78" x="-2502386.30521" y="3466472.97425" type="priority"/>
<node id="c303a" x="-2502159.18805" y="3466730.4043799993" type="priority"/>
<node id="f1147" x="-2502376.4954899997" y="3466508.543129999" type="priority"/>
<node id="a40c6" x="-2502134.20519" y="3466318.1411799993" type="priority"/>
<node id="320bc" x="-2502079.8363699997" y="3466610.67399" type="priority"/>
<node id="9537b" x="-2501959.7977400003" y="3467093.82807" type="priority"/>
<node id="d5a13" x="-2501904.649" y="3467149.59482" type="priority"/>
<node id="cedde" x="-2502175.01345" y="3466617.865529999" type="priority"/>
<node id="c89aa" x="-2502426.26977" y="3466571.6614200007" type="priority"/>
<node id="1e30a" x="-2501469.68705" y="3467227.5112299994" type="priority"/>
<node id="df7a9" x="-2502075.07674" y="3466742.1292400006" type="priority"/>
<node id="a1d8d" x="-2501835.4123" y="3467190.3777300008" type="priority"/>
<node id="3b47b" x="-2497143.7947199997" y="3465948.7351200003" type="priority"/>
<node id="c5ed0" x="-2497132.32205" y="3465853.3458600007" type="priority"/>
<node id="626a8" x="-2497399.946" y="3466249.861199999" type="priority"/>
<node id="23dd0" x="-2497149.6490599997" y="3465352.363" type="priority"/>
<node id="d0773" x="-2497133.50878" y="3465689.7527600005" type="priority"/>
<node id="b5953" x="-2499933.4973" y="3466716.87734" type="priority"/>
<node id="ee7d6" x="-2499791.73008" y="3466680.86943" type="priority"/>
<node id="13b7b" x="-2499725.52672" y="3466667.6512599997" type="priority"/>
<node id="c3fb9" x="-2500347.1944899997" y="3466792.183839999" type="priority"/>
<node id="6b2f0" x="-2499363.45512" y="3466595.31477" type="priority"/>
<node id="377f9" x="-2499216.1737" y="3466574.0555000007" type="priority"/>
<node id="311a1" x="-2498544.7045799997" y="3466439.44142" type="priority"/>
<node id="5dd37" x="-2498790.74627" y="3466488.4442100003" type="priority"/>
<node id="6add5" x="-2499373.42956" y="3466605.1823299993" type="priority"/>
<node id="4108c" x="-2497205.91522" y="3465266.6628399994" type="priority"/>
<node id="258bd" x="-2497170.27631" y="3465678.41326" type="priority"/>
<node id="5dd1c" x="-2497450.1151900003" y="3465629.8366199993" type="priority"/>
<node id="cc616" x="-2497203.16457" y="3465406.2082599998" type="priority"/>
<node id="23f95" x="-2497219.05023" y="3465210.1170700006" type="priority"/>
<node id="e1bac" x="-2499521.2035499997" y="3466030.0827600006" type="priority"/>
<node id="237b3" x="-2499244.9082" y="3465982.398600001" type="priority"/>
<node id="d9c8a" x="-2497156.96175" y="3465675.0170099996" type="priority"/>
<node id="8d0de" x="-2499528.03205" y="3466046.308940001" type="priority"/>
<node id="7f508" x="-2499125.7639699997" y="3465958.2609899994" type="priority"/>
<node id="f5cd3" x="-2499791.3383299997" y="3466098.7437500004" type="priority"/>
<node id="e64bb" x="-2497137.76165" y="3465646.00478" type="priority"/>
<node id="d6ae6" x="-2497171.1174999997" y="3465228.2388899997" type="priority"/>
<node id="8b4cb" x="-2499298.6496099997" y="3465694.447520001" type="priority"/>
<node id="05204" x="-2500210.6977500003" y="3465810.61393" type="priority"/>
<node id="13e6c" x="-2501342.59963" y="3466098.3269800004" type="priority"/>
<node id="21f94" x="-2500697.08322" y="3465978.0314099994" type="priority"/>
<node id="07bb5" x="-2500285.90938" y="3465889.62201" type="priority"/>
<node id="4b853" x="-2499564.0546" y="3465741.1662399992" type="priority"/>
<node id="49c8a" x="-2499447.53321" y="3465726.034739999" type="priority"/>
<node id="9aa70" x="-2500328.37475" y="3465903.7059400007" type="priority"/>
<node id="4b7dc" x="-2500626.85" y="3465968.715810001" type="priority"/>
<node id="99017" x="-2499347.6567599997" y="3465713.33976" type="priority"/>
<node id="29c08" x="-2500371.2872" y="3465916.6625200007" type="priority"/>
<node id="0f3c9" x="-2497032.1762300003" y="3465031.2643800005" type="priority"/>
<node id="902a2" x="-2497472.78114" y="3465193.04603" type="priority"/>
<node id="81206" x="-2497573.7063800003" y="3465213.34478" type="priority"/>
<node id="d3353" x="-2499220.27091" y="3465537.4882900007" type="priority"/>
<node id="381b6" x="-2500217.2753600003" y="3465717.11135" type="priority"/>
<node id="2e508" x="-2501344.13353" y="3466090.50107" type="priority"/>
<node id="ddcf1" x="-2500219.45833" y="3465707.808049999" type="priority"/>
<node id="a2b45" x="-2499302.46536" y="3465542.4335600007" type="priority"/>
<node id="bb477" x="-2496392.48255" y="3464409.16161" type="priority"/>
<node id="ce444" x="-2500455.2907" y="3465841.1118899994" type="priority"/>
<node id="084b3" x="-2496478.88538" y="3464480.6808599997" type="priority"/>
<node id="c5982" x="-2496271.1276000002" y="3464260.7358800005" type="priority"/>
<node id="f34a7" x="-2500222.77621" y="3465336.5130000003" type="priority"/>
<node id="5b756" x="-2501440.97589" y="3465579.4777099993" type="priority"/>
<node id="e4d60" x="-2497469.05417" y="3464772.28445" type="priority"/>
<node id="87983" x="-2501063.92718" y="3465491.6644" type="priority"/>
<node id="2bd3e" x="-2499919.70063" y="3465256.5560599994" type="priority"/>
<node id="2c2f3" x="-2499853.83938" y="3465243.4680899996" type="priority"/>
<node id="17551" x="-2498564.93719" y="3464991.735819999" type="priority"/>
<node id="08b62" x="-2498730.1126800003" y="3465048.2668200005" type="priority"/>
<node id="78e0d" x="-2498846.66579" y="3465078.8084699996" type="priority"/>
<node id="a41be" x="-2499664.0816200003" y="3465247.0675799996" type="priority"/>
<node id="86c06" x="-2500314.84354" y="3465362.72556" type="priority"/>
<node id="4bf19" x="-2500393.83046" y="3465385.24364" type="priority"/>
<node id="48e0c" x="-2500490.66435" y="3465412.95142" type="priority"/>
<node id="55d56" x="-2500581.65185" y="3465439.2482200004" type="priority"/>
<node id="39f23" x="-2501069.2672800003" y="3465535.8845000006" type="priority"/>
<node id="96657" x="-2501157.26549" y="3465546.29122" type="priority"/>
<node id="daa82" x="-2501238.77696" y="3465555.394200001" type="priority"/>
<node id="c420e" x="-2501344.13751" y="3465567.8203599993" type="priority"/>
<node id="d9c38" x="-2501527.7530300003" y="3465591.1436100006" type="priority"/>
<node id="a4040" x="-2498399.06202" y="3464966.5934500005" type="priority"/>
<node id="7d91e" x="-2498247.20268" y="3464943.3895999994" type="priority"/>
<node id="dfc51" x="-2499723.16154" y="3465350.22174" type="priority"/>
<node id="af1f9" x="-2498928.81964" y="3465143.5410900004" type="priority"/>
<node id="40441" x="-2499732.87717" y="3465211.780820001" type="priority"/>
<node id="b55d6" x="-2500351.1972000003" y="3465138.3642999995" type="priority"/>
<node id="39d9e" x="-2500842.4581899997" y="3465123.6765100006" type="priority"/>
<node id="c1899" x="-2498656.13157" y="3465047.7082400005" type="priority"/>
<node id="33df3" x="-2498428.4372300003" y="3465011.14068" type="priority"/>
<node id="6abce" x="-2498543.36596" y="3464987.7523100004" type="priority"/>
<node id="7129f" x="-2498410.65295" y="3464968.37259" type="priority"/>
<node id="07ce3" x="-2498642.4086100003" y="3464995.16959" type="priority"/>
<node id="bf713" x="-2498435.2430600002" y="3464966.05607" type="priority"/>
<node id="b65d9" x="-2497796.2415199997" y="3464845.657710001" type="priority"/>
<node id="4665a" x="-2497995.81268" y="3464892.907090001" type="priority"/>
<node id="e6537" x="-2498079.34331" y="3464910.00285" type="priority"/>
<node id="c65b8" x="-2499754.49809" y="3465253.458520001" type="priority"/>
<node id="c33a2" x="-2499720.2713" y="3465364.927270001" type="priority"/>
<node id="3c979" x="-2499078.76408" y="3465213.0916600004" type="priority"/>
<node id="5ffe2" x="-2497171.42421" y="3464712.7100399993" type="priority"/>
<node id="24819" x="-2498018.12452" y="3464882.6566499993" type="priority"/>
<node id="d2deb" x="-2498409.7146199998" y="3464961.11912" type="priority"/>
<node id="103f1" x="-2500038.17648" y="3465286.497780001" type="priority"/>
<node id="57b65" x="-2501677.27401" y="3465621.087889999" type="priority"/>
<node id="71645" x="-2499035.5600199997" y="3465192.0569700003" type="priority"/>
<node id="03b7f" x="-2499717.87872" y="3465357.192779999" type="priority"/>
<node id="5259d" x="-2498357.58579" y="3464994.9999199994" type="priority"/>
<node id="064ff" x="-2498257.55475" y="3464937.8397000004" type="priority"/>
<node id="a800f" x="-2498473.35296" y="3464980.9608500004" type="priority"/>
<node id="16b63" x="-2500116.2493000003" y="3465309.26461" type="priority"/>
<node id="f2bde" x="-2501997.04309" y="3465684.67437" type="priority"/>
<node id="7895f" x="-2497859.7851299997" y="3464733.1692200005" type="priority"/>
<node id="7f251" x="-2497605.34038" y="3464706.59334" type="priority"/>
<node id="28918" x="-2500838.7318" y="3465130.421119999" type="priority"/>
<node id="bf077" x="-2498486.68548" y="3464997.4152700007" type="priority"/>
<node id="e80ae" x="-2498843.15117" y="3465115.36592" type="priority"/>
<node id="3d2ae" x="-2497862.2056799997" y="3464727.47477" type="priority"/>
<node id="baac3" x="-2497562.07644" y="3464711.80745" type="priority"/>
<node id="f8aa8" x="-2499823.7773" y="3465261.09863" type="priority"/>
<node id="79f07" x="-2498654.69247" y="3465055.90233" type="priority"/>
<node id="ffc81" x="-2497029.58305" y="3465740.633130001" type="priority"/>
<node id="1280c" x="-2497019.16572" y="3465320.15326" type="priority"/>
<node id="ccfb7" x="-2496994.5833099997" y="3465037.193569999" type="priority"/>
<node id="8ba6d" x="-2497022.0896699997" y="3465697.0473999996" type="priority"/>
<node id="ad25a" x="-2497002.35754" y="3465101.70768" type="priority"/>
<node id="a095c" x="-2506174.81471" y="3466959.7993100006" type="priority"/>
<node id="ce022" x="-2502696.49747" y="3465323.1018000003" type="priority"/>
<node id="03399" x="-2503029.19899" y="3465439.6410799995" type="priority"/>
<node id="287c0" x="-2503162.9027899997" y="3465508.0424000006" type="priority"/>
<node id="f4b30" x="-2502481.05425" y="3465277.5156900007" type="priority"/>
<node id="fd955" x="-2502404.14932" y="3471027.2335800007" type="priority"/>
<node id="b3e45" x="-2502019.07712" y="3470252.1376300007" type="priority"/>
<node id="8f906" x="-2503242.8918399997" y="3469060.4349099994" type="priority"/>
<node id="ffc14" x="-2503110.39733" y="3469109.69341" type="priority"/>
<node id="3169a" x="-2504438.65243" y="3467255.4059200007" type="priority"/>
<node id="94df4" x="-2504374.91192" y="3467310.9570700005" type="priority"/>
<node id="3a737" x="-2502065.25229" y="3470168.9424600005" type="priority"/>
<node id="aa51b" x="-2496006.9895" y="3463883.18231" type="priority"/>
<node id="56813" x="-2496089.0351799997" y="3463971.1033299994" type="priority"/>
<node id="aa8e8" x="-2495343.4118600003" y="3462577.7074100003" type="priority"/>
<node id="65e89" x="-2495573.12015" y="3462989.454879999" type="priority"/>
<node id="e30e4" x="-2495598.2287" y="3463022.3235" type="priority"/>
<node id="bc4f0" x="-2495645.18178" y="3463081.85712" type="priority"/>
<node id="f6921" x="-2495683.0120900003" y="3463128.25351" type="priority"/>
<node id="376e3" x="-2495756.65156" y="3463239.3292299993" type="priority"/>
<node id="3ded0" x="-2495799.7187099997" y="3463297.7141900007" type="priority"/>
<node id="1d7d4" x="-2496170.41475" y="3464053.11647" type="priority"/>
<node id="87eaa" x="-2496189.94914" y="3464095.010810001" type="priority"/>
<node id="9f1d3" x="-2496047.9465699997" y="3463987.9634300005" type="priority"/>
<node id="ae1d4" x="-2495752.79409" y="3463427.20201" type="priority"/>
<node id="98409" x="-2496122.67429" y="3463956.3667900003" type="priority"/>
<node id="cb6bf" x="-2496149.34396" y="3464023.723169999" type="priority"/>
<node id="6d69e" x="-2495606.48572" y="3463145.2159199994" type="priority"/>
<node id="7fc7f" x="-2495261.22944" y="3462466.0143" type="priority"/>
<node id="763d6" x="-2496096.6506000003" y="3463962.0940799993" type="priority"/>
<node id="54640" x="-2496933.05767" y="3464015.7976399995" type="priority"/>
<node id="34776" x="-2496117.03884" y="3463965.46112" type="priority"/>
<node id="7c3fa" x="-2496095.0286999997" y="3463911.7121099997" type="priority"/>
<node id="440bc" x="-2495614.81863" y="3463161.4964199997" type="priority"/>
<node id="48f7b" x="-2496065.29227" y="3463987.5391000006" type="priority"/>
<node id="810ce" x="-2496023.04794" y="3463660.0042199995" type="priority"/>
<node id="5e08f" x="-2495572.6363" y="3462964.7051" type="priority"/>
<node id="4d495" x="-2494713.02675" y="3461444.7782300003" type="priority"/>
<node id="8c860" x="-2494587.7028" y="3461220.73566" type="priority"/>
<node id="91afe" x="-2493992.3470099997" y="3460151.1817300003" type="priority"/>
<node id="f95f0" x="-2496022.16866" y="3463857.9397599995" type="priority"/>
<node id="63296" x="-2495566.34365" y="3463036.3671899997" type="priority"/>
<node id="b6df4" x="-2494739.04882" y="3461492.3804599997" type="priority"/>
<node id="416f4" x="-2495512.32112" y="3462879.5379399993" type="priority"/>
<node id="a7401" x="-2496074.00237" y="3463773.88445" type="priority"/>
<node id="ed506" x="-2494784.43721" y="3461589.2829" type="priority"/>
<node id="0c84b" x="-2495573.5171999997" y="3463060.378420001" type="priority"/>
<node id="4f3d6" x="-2494623.38895" y="3461300.3340000007" type="priority"/>
<node id="117fe" x="-2494652.6085099997" y="3461352.99055" type="priority"/>
<node id="b619f" x="-2494613.8868" y="3461298.68695" type="priority"/>
<node id="9f550" x="-2494010.89792" y="3460216.2829400003" type="priority"/>
<node id="54a2d" x="-2493990.24661" y="3460160.69039" type="priority"/>
<node id="622d0" x="-2493935.19411" y="3460026.1371400002" type="priority"/>
<node id="4eec2" x="-2495643.0004000003" y="3463115.443050001" type="priority"/>
<node id="ae2c5" x="-2495439.7341" y="3462750.79669" type="priority"/>
<node id="d17e7" x="-2498595.24711" y="3465410.8563800007" type="priority"/>
<node id="b5aa1" x="-2499058.4256800003" y="3465503.17983" type="priority"/>
<node id="63995" x="-2497544.1532300003" y="3465203.09485" type="priority"/>
<node id="067af" x="-2502672.98959" y="3470652.60974" type="priority"/>
<node id="78e70" x="-2499107.47117" y="3467499.618279999" type="priority"/>
<node id="33174" x="-2501503.20386" y="3470966.54074" type="priority"/>
<node id="94789" x="-2501429.43779" y="3471142.7410899997" type="priority"/>
<node id="bff13" x="-2496304.40159" y="3462020.9167100005" type="priority"/>
<node id="7c987" x="-2494943.27307" y="3461471.0735100005" type="priority"/>
<node id="683b5" x="-2495007.94924" y="3461463.9618500005" type="priority"/>
<node id="763e1" x="-2496330.60471" y="3462111.35348" type="priority"/>
<node id="7b864" x="-2495142.4216299998" y="3461442.8644200005" type="priority"/>
<node id="96f09" x="-2498904.34496" y="3465266.67457" type="priority"/>
<node id="6eca2" x="-2497903.30986" y="3464673.4709600005" type="priority"/>
<node id="85a5b" x="-2500688.49554" y="3470018.4375" type="priority"/>
<node id="9acdd" x="-2494732.06581" y="3461496.853150001" type="priority"/>
<node id="8556b" x="-2493469.5681600003" y="3459476.84437" type="priority"/>
<node id="31f43" x="-2494375.3854900002" y="3461524.1299600005" type="priority"/>
<node id="890f9" x="-2501729.34003" y="3466763.335310001" type="priority"/>
<node id="829d9" x="-2501815.05987" y="3466580.824379999" type="priority"/>
<node id="d95b4" x="-2501796.61764" y="3466576.84478" type="priority"/>
<node id="44041" x="-2494693.1431299997" y="3461425.367520001" type="priority"/>
<node id="f6df2" x="-2494687.68987" y="3461415.213369999" type="priority"/>
<node id="a5ceb" x="-2493455.62357" y="3459476.6903099995" type="priority"/>
<node id="c787b" x="-2493881.88806" y="3459972.590260001" type="priority"/>
<node id="ba6b0" x="-2493946.14531" y="3460066.10967" type="priority"/>
<node id="9c0bb" x="-2493971.2971099997" y="3460137.5951300003" type="priority"/>
<node id="2fe64" x="-2494008.2477599997" y="3460300.642170001" type="priority"/>
<node id="0c9b4" x="-2494016.6287000002" y="3460279.8805" type="priority"/>
<node id="e28c4" x="-2494575.71638" y="3461270.40261" type="priority"/>
<node id="e6540" x="-2494617.17002" y="3461319.4569700006" type="priority"/>
<node id="c512a" x="-2494643.65392" y="3461353.2205800004" type="priority"/>
<node id="8929c" x="-2494024.51274" y="3460274.866250001" type="priority"/>
<node id="ef023" x="-2494565.18023" y="3461233.7732500006" type="priority"/>
<node id="c5e3f" x="-2497264.32382" y="3465621.3954600003" type="priority"/>
<node id="0a34b" x="-2497656.06887" y="3465925.5559599996" type="priority"/>
<node id="54e90" x="-2497686.7151699997" y="3465797.732829999" type="priority"/>
<node id="0a154" x="-2500288.9479" y="3465672.573829999" type="priority"/>
<node id="723a3" x="-2499742.80736" y="3465563.96095" type="priority"/>
<node id="65750" x="-2500268.7593" y="3465688.3104999997" type="priority"/>
<node id="d4a92" x="-2499628.86878" y="3465361.2334199995" type="priority"/>
<node id="eac59" x="-2499746.83585" y="3465384.1398300007" type="priority"/>
<node id="6cd39" x="-2500689.65583" y="3465572.1116000004" type="priority"/>
<node id="611ed" x="-2501008.06557" y="3465635.8030600008" type="priority"/>
<node id="27965" x="-2500367.8104499998" y="3465487.431569999" type="priority"/>
<node id="7f3e9" x="-2501867.3481099997" y="3467169.0856299996" type="priority"/>
<node id="eb8d0" x="-2502040.20981" y="3466600.8781700004" type="priority"/>
<node id="9145d" x="-2501240.25337" y="3467344.6480199993" type="priority"/>
<node id="e129a" x="-2497059.31711" y="3466332.2713099997" type="priority"/>
<node id="4dfb6" x="-2493668.6083500003" y="3459405.31766" type="priority"/>
<node id="c852a" x="-2502015.7460000003" y="3466598.4382499997" type="priority"/>
<node id="40c4f" x="-2502042.29877" y="3466729.071900001" type="priority"/>
<node id="a0d0c" x="-2499663.93081" y="3465242.13315" type="priority"/>
<node id="ff5b5" x="-2502154.20829" y="3466321.865599999" type="priority"/>
<node id="bf290" x="-2501429.78264" y="3466692.0635199994" type="priority"/>
<node id="6dc12" x="-2500577.21358" y="3467192.8792899996" type="priority"/>
<node id="2a536" x="-2499179.1284499997" y="3465265.5784399994" type="priority"/>
</nodes>
