<?xml version="1.0" encoding="UTF-8"?>

<!-- generated on 2023-04-20 09:47:19 by Eclipse SUMO netconvert Version 1.12.0
<configuration xmlns:xsi="http://www.w3.org/2001/XMLSchema-instance" xsi:noNamespaceSchemaLocation="http://sumo.dlr.de/xsd/netconvertConfiguration.xsd">

    <input>
        <node-files value="sumo-config/test_with_fixed_points.nod.xml"/>
        <edge-files value="sumo-config/test_with_fixed_points.edg.xml"/>
        <connection-files value="sumo-config/test_with_fixed_points.con.xml"/>
    </input>

    <output>
        <output-file value="sumo-config/test_with_fixed_points.net.xml"/>
    </output>

    <railway>
        <railway.topology.repair value="true"/>
        <railway.topology.repair.connect-straight value="true"/>
        <railway.topology.repair.stop-turn value="true"/>
        <railway.topology.all-bidi value="false"/>
    </railway>

    <report>
        <aggregate-warnings value="5"/>
    </report>

</configuration>
-->

<net version="1.9" junctionCornerDetail="5" limitTurnSpeed="5.50" xmlns:xsi="http://www.w3.org/2001/XMLSchema-instance" xsi:noNamespaceSchemaLocation="http://sumo.dlr.de/xsd/net_file.xsd">

    <location netOffset="2506174.81,-3459405.32" convBoundary="0.00,0.00,12719.19,11737.42" origBoundary="-2506174.81,3459405.32,-2493455.62,3471142.74" projParameter="!"/>

    <edge id=":00ad7_0" function="internal" bidi=":00ad7_3">
        <lane id=":00ad7_0_0" index="0" allow="rail rail_electric" speed="110.00" length="40.52" shape="9101.22,6649.26 9099.90,6656.88 9097.96,6669.26 9096.14,6681.65 9095.19,6689.33"/>
    </edge>
    <edge id=":00ad7_1" function="internal" bidi=":00ad7_2">
        <lane id=":00ad7_1_0" index="0" allow="rail rail_electric" speed="110.00" length="40.51" shape="9097.83,6648.91 9095.19,6689.33"/>
    </edge>
    <edge id=":00ad7_2" function="internal" bidi=":00ad7_1">
        <lane id=":00ad7_2_0" index="0" allow="rail rail_electric" speed="110.00" length="40.51" shape="9095.19,6689.33 9097.83,6648.91"/>
    </edge>
    <edge id=":00ad7_3" function="internal" bidi=":00ad7_0">
        <lane id=":00ad7_3_0" index="0" allow="rail rail_electric" speed="110.00" length="40.52" shape="9095.19,6689.33 9096.14,6681.65 9097.96,6669.26 9099.90,6656.88 9101.22,6649.26"/>
    </edge>
    <edge id=":03399_0" function="internal" bidi=":03399_3">
        <lane id=":03399_0_0" index="0" allow="rail rail_electric" speed="110.00" length="80.23" shape="3147.06,6033.72 3075.74,6070.49"/>
    </edge>
    <edge id=":03399_1" function="internal" bidi=":03399_2">
        <lane id=":03399_1_0" index="0" allow="rail rail_electric" speed="110.00" length="85.09" shape="3147.06,6033.72 3069.99,6069.80"/>
    </edge>
    <edge id=":03399_2" function="internal" bidi=":03399_1">
        <lane id=":03399_2_0" index="0" allow="rail rail_electric" speed="110.00" length="85.09" shape="3069.99,6069.80 3147.06,6033.72"/>
    </edge>
    <edge id=":03399_3" function="internal" bidi=":03399_0">
        <lane id=":03399_3_0" index="0" allow="rail rail_electric" speed="110.00" length="80.23" shape="3075.74,6070.49 3147.06,6033.72"/>
    </edge>
    <edge id=":03b7f_0" function="internal">
        <lane id=":03b7f_0_0" index="0" allow="rail rail_electric" speed="0.10" length="0.10" shape="6456.94,5951.88 6456.94,5951.88"/>
    </edge>
    <edge id=":0443b_0" function="internal" bidi=":0443b_1">
        <lane id=":0443b_0_0" index="0" allow="rail rail_electric" speed="110.00" length="37.71" shape="9128.58,5419.98 9128.07,5412.70 9127.44,5401.16 9126.92,5389.61 9126.77,5382.32"/>
    </edge>
    <edge id=":0443b_1" function="internal" bidi=":0443b_0">
        <lane id=":0443b_1_0" index="0" allow="rail rail_electric" speed="110.00" length="37.71" shape="9126.77,5382.32 9126.92,5389.61 9127.44,5401.16 9128.07,5412.70 9128.58,5419.98"/>
    </edge>
    <edge id=":0443b_2" function="internal" bidi=":0443b_3">
        <lane id=":0443b_2_0" index="0" allow="rail rail_electric" speed="110.00" length="37.71" shape="9126.77,5382.32 9125.17,5419.99"/>
    </edge>
    <edge id=":0443b_3" function="internal" bidi=":0443b_2">
        <lane id=":0443b_3_0" index="0" allow="rail rail_electric" speed="110.00" length="37.71" shape="9125.17,5419.99 9126.77,5382.32"/>
    </edge>
    <edge id=":04c09_0" function="internal" bidi=":04c09_1">
        <lane id=":04c09_0_0" index="0" allow="rail rail_electric" speed="110.00" length="32.54" shape="9094.93,6744.33 9094.50,6737.85 9093.96,6728.08 9093.57,6718.31 9093.56,6711.83"/>
    </edge>
    <edge id=":04c09_1" function="internal" bidi=":04c09_0">
        <lane id=":04c09_1_0" index="0" allow="rail rail_electric" speed="110.00" length="32.54" shape="9093.56,6711.83 9093.57,6718.31 9093.96,6728.08 9094.50,6737.85 9094.93,6744.33"/>
    </edge>
    <edge id=":04c09_2" function="internal" bidi=":04c09_3">
        <lane id=":04c09_2_0" index="0" allow="rail rail_electric" speed="110.00" length="32.52" shape="9093.56,6711.83 9091.52,6744.28"/>
    </edge>
    <edge id=":04c09_3" function="internal" bidi=":04c09_2">
        <lane id=":04c09_3_0" index="0" allow="rail rail_electric" speed="110.00" length="32.52" shape="9091.52,6744.28 9093.56,6711.83"/>
    </edge>
    <edge id=":05204_0" function="internal">
        <lane id=":05204_0_0" index="0" allow="rail rail_electric" speed="0.10" length="0.10" shape="5964.12,6405.30 5964.12,6405.30"/>
    </edge>
    <edge id=":05938_0" function="internal">
        <lane id=":05938_0_0" index="0" allow="rail rail_electric" speed="0.10" length="0.10" shape="4252.74,7162.08 4252.74,7162.08"/>
    </edge>
    <edge id=":064ff_0" function="internal" bidi=":064ff_3">
        <lane id=":064ff_0_0" index="0" allow="rail rail_electric" speed="110.00" length="77.61" shape="7918.76,5532.22 7842.70,5547.67"/>
    </edge>
    <edge id=":064ff_1" function="internal" bidi=":064ff_2">
        <lane id=":064ff_1_0" index="0" allow="rail rail_electric" speed="110.00" length="77.62" shape="7918.76,5532.22 7842.11,5544.44"/>
    </edge>
    <edge id=":064ff_2" function="internal" bidi=":064ff_1">
        <lane id=":064ff_2_0" index="0" allow="rail rail_electric" speed="110.00" length="77.62" shape="7842.11,5544.44 7918.76,5532.22"/>
    </edge>
    <edge id=":064ff_3" function="internal" bidi=":064ff_0">
        <lane id=":064ff_3_0" index="0" allow="rail rail_electric" speed="110.00" length="77.61" shape="7842.70,5547.67 7918.76,5532.22"/>
    </edge>
    <edge id=":067af_0" function="internal">
        <lane id=":067af_0_0" index="0" allow="rail rail_electric" speed="0.10" length="0.10" shape="3501.83,11247.29 3501.83,11247.29"/>
    </edge>
    <edge id=":07bb5_0" function="internal" bidi=":07bb5_3">
        <lane id=":07bb5_0_0" index="0" allow="rail rail_electric" speed="110.00" length="44.78" shape="5931.20,6475.50 5922.95,6477.16 5909.24,6479.94 5895.55,6482.83 5887.39,6484.81"/>
    </edge>
    <edge id=":07bb5_1" function="internal" bidi=":07bb5_2">
        <lane id=":07bb5_1_0" index="0" allow="rail rail_electric" speed="110.00" length="44.79" shape="5930.40,6472.28 5887.39,6484.81"/>
    </edge>
    <edge id=":07bb5_2" function="internal" bidi=":07bb5_1">
        <lane id=":07bb5_2_0" index="0" allow="rail rail_electric" speed="110.00" length="44.79" shape="5887.39,6484.81 5930.40,6472.28"/>
    </edge>
    <edge id=":07bb5_3" function="internal" bidi=":07bb5_0">
        <lane id=":07bb5_3_0" index="0" allow="rail rail_electric" speed="110.00" length="44.78" shape="5887.39,6484.81 5895.55,6482.83 5909.24,6479.94 5922.95,6477.16 5931.20,6475.50"/>
    </edge>
    <edge id=":07ce3_0" function="internal" bidi=":07ce3_3">
        <lane id=":07ce3_0_0" index="0" allow="rail rail_electric" speed="110.00" length="64.63" shape="7594.90,5581.27 7530.89,5590.15"/>
    </edge>
    <edge id=":07ce3_1" function="internal" bidi=":07ce3_2">
        <lane id=":07ce3_1_0" index="0" allow="rail rail_electric" speed="110.00" length="64.63" shape="7594.37,5578.04 7530.89,5590.15"/>
    </edge>
    <edge id=":07ce3_2" function="internal" bidi=":07ce3_1">
        <lane id=":07ce3_2_0" index="0" allow="rail rail_electric" speed="110.00" length="64.63" shape="7530.89,5590.15 7594.37,5578.04"/>
    </edge>
    <edge id=":07ce3_3" function="internal" bidi=":07ce3_0">
        <lane id=":07ce3_3_0" index="0" allow="rail rail_electric" speed="110.00" length="64.63" shape="7530.89,5590.15 7594.90,5581.27"/>
    </edge>
    <edge id=":0815c_0" function="internal" bidi=":0815c_3">
        <lane id=":0815c_0_0" index="0" allow="rail rail_electric" speed="110.00" length="56.28" shape="5607.20,8105.98 5552.02,8117.00"/>
    </edge>
    <edge id=":0815c_1" function="internal" bidi=":0815c_2">
        <lane id=":0815c_1_0" index="0" allow="rail rail_electric" speed="110.00" length="56.27" shape="5606.46,8102.77 5552.02,8117.00"/>
    </edge>
    <edge id=":0815c_2" function="internal" bidi=":0815c_1">
        <lane id=":0815c_2_0" index="0" allow="rail rail_electric" speed="110.00" length="56.27" shape="5552.02,8117.00 5606.46,8102.77"/>
    </edge>
    <edge id=":0815c_3" function="internal" bidi=":0815c_0">
        <lane id=":0815c_3_0" index="0" allow="rail rail_electric" speed="110.00" length="56.28" shape="5552.02,8117.00 5607.20,8105.98"/>
    </edge>
    <edge id=":084b3_0" function="internal" bidi=":084b3_3">
        <lane id=":084b3_0_0" index="0" allow="rail rail_electric" speed="110.00" length="38.17" shape="9697.17,5074.34 9666.83,5097.51"/>
    </edge>
    <edge id=":084b3_1" function="internal" bidi=":084b3_2">
        <lane id=":084b3_1_0" index="0" allow="rail rail_electric" speed="110.00" length="38.17" shape="9697.17,5074.34 9691.10,5078.50 9681.20,5084.76 9671.22,5090.91 9664.94,5094.77"/>
    </edge>
    <edge id=":084b3_2" function="internal" bidi=":084b3_1">
        <lane id=":084b3_2_0" index="0" allow="rail rail_electric" speed="110.00" length="38.17" shape="9664.94,5094.77 9671.22,5090.91 9681.20,5084.76 9691.10,5078.50 9697.17,5074.34"/>
    </edge>
    <edge id=":084b3_3" function="internal" bidi=":084b3_0">
        <lane id=":084b3_3_0" index="0" allow="rail rail_electric" speed="110.00" length="38.17" shape="9666.83,5097.51 9697.17,5074.34"/>
    </edge>
    <edge id=":08b62_0" function="internal">
        <lane id=":08b62_0_0" index="0" allow="rail rail_electric" speed="110.00" length="57.65" shape="7446.22,5642.63 7390.43,5657.17"/>
    </edge>
    <edge id=":08b62_1" function="internal">
        <lane id=":08b62_1_0" index="0" allow="rail rail_electric" speed="110.00" length="57.66" shape="7446.22,5642.63 7389.69,5653.97"/>
    </edge>
    <edge id=":08b62_2" function="internal">
        <lane id=":08b62_2_0" index="0" allow="rail rail_electric" speed="110.00" length="57.66" shape="7389.69,5653.97 7446.23,5642.64"/>
    </edge>
    <edge id=":08b62_3" function="internal">
        <lane id=":08b62_3_0" index="0" allow="rail rail_electric" speed="110.00" length="57.65" shape="7390.43,5657.17 7446.23,5642.64"/>
    </edge>
    <edge id=":0a154_0" function="internal">
        <lane id=":0a154_0_0" index="0" allow="rail rail_electric" speed="0.10" length="0.10" shape="5885.87,6267.26 5885.87,6267.26"/>
    </edge>
    <edge id=":0a34b_0" function="internal">
        <lane id=":0a34b_0_0" index="0" allow="rail rail_electric" speed="0.10" length="0.10" shape="8518.75,6520.24 8518.75,6520.24"/>
    </edge>
    <edge id=":0c84b_0" function="internal" bidi=":0c84b_3">
        <lane id=":0c84b_0_0" index="0" allow="rail rail_electric" speed="110.00" length="45.14" shape="10601.76,3653.50 10585.53,3695.63"/>
    </edge>
    <edge id=":0c84b_1" function="internal" bidi=":0c84b_2">
        <lane id=":0c84b_1_0" index="0" allow="rail rail_electric" speed="110.00" length="45.14" shape="10601.76,3653.50 10598.45,3661.27 10592.40,3674.01 10586.21,3686.71 10582.49,3694.31"/>
    </edge>
    <edge id=":0c84b_2" function="internal" bidi=":0c84b_1">
        <lane id=":0c84b_2_0" index="0" allow="rail rail_electric" speed="110.00" length="45.14" shape="10582.49,3694.31 10586.21,3686.71 10592.40,3674.01 10598.45,3661.27 10601.76,3653.50"/>
    </edge>
    <edge id=":0c84b_3" function="internal" bidi=":0c84b_0">
        <lane id=":0c84b_3_0" index="0" allow="rail rail_electric" speed="110.00" length="45.14" shape="10585.53,3695.63 10601.76,3653.50"/>
    </edge>
    <edge id=":0c984_0" function="internal" bidi=":0c984_3">
        <lane id=":0c984_0_0" index="0" allow="rail rail_electric" speed="110.00" length="84.13" shape="5160.48,7842.26 5078.73,7862.11"/>
    </edge>
    <edge id=":0c984_1" function="internal" bidi=":0c984_2">
        <lane id=":0c984_1_0" index="0" allow="rail rail_electric" speed="110.00" length="84.13" shape="5160.48,7842.26 5078.02,7858.93"/>
    </edge>
    <edge id=":0c984_2" function="internal" bidi=":0c984_1">
        <lane id=":0c984_2_0" index="0" allow="rail rail_electric" speed="110.00" length="84.13" shape="5078.02,7858.93 5160.48,7842.26"/>
    </edge>
    <edge id=":0c984_3" function="internal" bidi=":0c984_0">
        <lane id=":0c984_3_0" index="0" allow="rail rail_electric" speed="110.00" length="84.13" shape="5078.73,7862.11 5160.48,7842.26"/>
    </edge>
    <edge id=":0c9b4_0" function="internal" bidi=":0c9b4_3">
        <lane id=":0c9b4_0_0" index="0" allow="rail rail_electric" speed="110.00" length="29.71" shape="12158.66,873.08 12151.51,901.92"/>
    </edge>
    <edge id=":0c9b4_1" function="internal" bidi=":0c9b4_2">
        <lane id=":0c9b4_1_0" index="0" allow="rail rail_electric" speed="110.00" length="29.71" shape="12158.66,873.08 12148.29,900.92"/>
    </edge>
    <edge id=":0c9b4_2" function="internal" bidi=":0c9b4_1">
        <lane id=":0c9b4_2_0" index="0" allow="rail rail_electric" speed="110.00" length="29.71" shape="12148.29,900.92 12158.66,873.08"/>
    </edge>
    <edge id=":0c9b4_3" function="internal" bidi=":0c9b4_0">
        <lane id=":0c9b4_3_0" index="0" allow="rail rail_electric" speed="110.00" length="29.71" shape="12151.51,901.92 12158.66,873.08"/>
    </edge>
    <edge id=":0d6e9_0" function="internal">
        <lane id=":0d6e9_0_0" index="0" allow="rail rail_electric" speed="0.10" length="0.10" shape="3877.97,7579.95 3877.97,7579.95"/>
    </edge>
    <edge id=":0d863_0" function="internal">
        <lane id=":0d863_0_0" index="0" allow="rail rail_electric" speed="0.10" length="0.10" shape="4430.52,7125.29 4430.52,7125.29"/>
    </edge>
    <edge id=":0f3c9_0" function="internal" bidi=":0f3c9_3">
        <lane id=":0f3c9_0_0" index="0" allow="rail rail_electric" speed="110.00" length="24.78" shape="9143.78,5602.80 9142.58,5627.55"/>
    </edge>
    <edge id=":0f3c9_1" function="internal" bidi=":0f3c9_2">
        <lane id=":0f3c9_1_0" index="0" allow="rail rail_electric" speed="110.00" length="24.78" shape="9140.37,5602.88 9140.95,5608.13 9141.73,5615.21 9142.38,5622.29 9142.58,5627.55"/>
    </edge>
    <edge id=":0f3c9_2" function="internal" bidi=":0f3c9_1">
        <lane id=":0f3c9_2_0" index="0" allow="rail rail_electric" speed="110.00" length="24.78" shape="9142.58,5627.55 9142.38,5622.29 9141.73,5615.21 9140.95,5608.13 9140.37,5602.88"/>
    </edge>
    <edge id=":0f3c9_3" function="internal" bidi=":0f3c9_0">
        <lane id=":0f3c9_3_0" index="0" allow="rail rail_electric" speed="110.00" length="24.78" shape="9142.58,5627.55 9143.78,5602.80"/>
    </edge>
    <edge id=":0fa7a_0" function="internal">
        <lane id=":0fa7a_0_0" index="0" allow="rail rail_electric" speed="0.10" length="0.10" shape="4490.06,7989.40 4490.06,7989.40"/>
    </edge>
    <edge id=":103f1_0" function="internal" bidi=":103f1_3">
        <lane id=":103f1_0_0" index="0" allow="rail rail_electric" speed="110.00" length="66.94" shape="6200.76,5868.35 6135.13,5881.48"/>
    </edge>
    <edge id=":103f1_1" function="internal" bidi=":103f1_2">
        <lane id=":103f1_1_0" index="0" allow="rail rail_electric" speed="110.00" length="58.85" shape="6192.20,5867.14 6135.13,5881.48"/>
    </edge>
    <edge id=":103f1_2" function="internal" bidi=":103f1_1">
        <lane id=":103f1_2_0" index="0" allow="rail rail_electric" speed="110.00" length="58.85" shape="6135.13,5881.48 6192.20,5867.14"/>
    </edge>
    <edge id=":103f1_3" function="internal" bidi=":103f1_0">
        <lane id=":103f1_3_0" index="0" allow="rail rail_electric" speed="110.00" length="66.94" shape="6135.13,5881.48 6200.76,5868.35"/>
    </edge>
    <edge id=":117fe_0" function="internal" bidi=":117fe_3">
        <lane id=":117fe_0_0" index="0" allow="rail rail_electric" speed="110.00" length="31.41" shape="11539.52,1923.38 11535.82,1928.50 11530.31,1936.11 11524.88,1943.78 11521.43,1949.05"/>
    </edge>
    <edge id=":117fe_1" function="internal" bidi=":117fe_2">
        <lane id=":117fe_1_0" index="0" allow="rail rail_electric" speed="110.00" length="31.42" shape="11536.68,1921.59 11521.43,1949.05"/>
    </edge>
    <edge id=":117fe_2" function="internal" bidi=":117fe_1">
        <lane id=":117fe_2_0" index="0" allow="rail rail_electric" speed="110.00" length="31.42" shape="11521.43,1949.05 11536.68,1921.59"/>
    </edge>
    <edge id=":117fe_3" function="internal" bidi=":117fe_0">
        <lane id=":117fe_3_0" index="0" allow="rail rail_electric" speed="110.00" length="31.41" shape="11521.43,1949.05 11524.88,1943.78 11530.31,1936.11 11535.82,1928.50 11539.52,1923.38"/>
    </edge>
    <edge id=":1280c_0" function="internal" bidi=":1280c_3">
        <lane id=":1280c_0_0" index="0" allow="rail rail_electric" speed="110.00" length="23.02" shape="9156.21,5893.46 9155.61,5916.46"/>
    </edge>
    <edge id=":1280c_1" function="internal" bidi=":1280c_2">
        <lane id=":1280c_1_0" index="0" allow="rail rail_electric" speed="110.00" length="23.01" shape="9152.78,5893.64 9153.52,5898.59 9154.49,5905.04 9155.31,5911.48 9155.61,5916.46"/>
    </edge>
    <edge id=":1280c_2" function="internal" bidi=":1280c_1">
        <lane id=":1280c_2_0" index="0" allow="rail rail_electric" speed="110.00" length="23.01" shape="9155.61,5916.46 9155.31,5911.48 9154.49,5905.04 9153.52,5898.59 9152.78,5893.64"/>
    </edge>
    <edge id=":1280c_3" function="internal" bidi=":1280c_0">
        <lane id=":1280c_3_0" index="0" allow="rail rail_electric" speed="110.00" length="23.02" shape="9155.61,5916.46 9156.21,5893.46"/>
    </edge>
    <edge id=":12acb_0" function="internal" bidi=":12acb_3">
        <lane id=":12acb_0_0" index="0" allow="rail rail_electric" speed="110.00" length="25.45" shape="9100.73,6775.51 9099.05,6800.91"/>
    </edge>
    <edge id=":12acb_1" function="internal" bidi=":12acb_2">
        <lane id=":12acb_1_0" index="0" allow="rail rail_electric" speed="110.00" length="25.45" shape="9097.32,6775.53 9097.80,6780.90 9098.45,6788.22 9098.96,6795.54 9099.05,6800.91"/>
    </edge>
    <edge id=":12acb_2" function="internal" bidi=":12acb_1">
        <lane id=":12acb_2_0" index="0" allow="rail rail_electric" speed="110.00" length="25.45" shape="9099.05,6800.91 9098.96,6795.54 9098.45,6788.22 9097.80,6780.90 9097.32,6775.53"/>
    </edge>
    <edge id=":12acb_3" function="internal" bidi=":12acb_0">
        <lane id=":12acb_3_0" index="0" allow="rail rail_electric" speed="110.00" length="25.45" shape="9099.05,6800.91 9100.73,6775.51"/>
    </edge>
    <edge id=":13b7b_0" function="internal" bidi=":13b7b_3">
        <lane id=":13b7b_0_0" index="0" allow="rail rail_electric" speed="110.00" length="64.06" shape="6450.80,7262.03 6387.98,7274.57"/>
    </edge>
    <edge id=":13b7b_1" function="internal" bidi=":13b7b_2">
        <lane id=":13b7b_1_0" index="0" allow="rail rail_electric" speed="110.00" length="64.06" shape="6450.80,7262.03 6387.42,7271.34"/>
    </edge>
    <edge id=":13b7b_2" function="internal" bidi=":13b7b_1">
        <lane id=":13b7b_2_0" index="0" allow="rail rail_electric" speed="110.00" length="64.06" shape="6387.42,7271.34 6450.80,7262.03"/>
    </edge>
    <edge id=":13b7b_3" function="internal" bidi=":13b7b_0">
        <lane id=":13b7b_3_0" index="0" allow="rail rail_electric" speed="110.00" length="64.06" shape="6387.98,7274.57 6450.80,7262.03"/>
    </edge>
    <edge id=":13bd9_0" function="internal" bidi=":13bd9_3">
        <lane id=":13bd9_0_0" index="0" allow="rail rail_electric" speed="110.00" length="14.28" shape="3782.76,7233.84 3781.76,7230.37 3780.31,7227.20 3778.63,7224.10 3776.93,7220.87"/>
    </edge>
    <edge id=":13bd9_1" function="internal" bidi=":13bd9_2">
        <lane id=":13bd9_1_0" index="0" allow="rail rail_electric" speed="110.00" length="14.27" shape="3782.76,7233.84 3780.35,7219.77"/>
    </edge>
    <edge id=":13bd9_2" function="internal" bidi=":13bd9_1">
        <lane id=":13bd9_2_0" index="0" allow="rail rail_electric" speed="110.00" length="14.27" shape="3780.35,7219.77 3782.76,7233.84"/>
    </edge>
    <edge id=":13bd9_3" function="internal" bidi=":13bd9_0">
        <lane id=":13bd9_3_0" index="0" allow="rail rail_electric" speed="110.00" length="14.28" shape="3776.93,7220.87 3778.63,7224.10 3780.31,7227.20 3781.76,7230.37 3782.76,7233.84"/>
    </edge>
    <edge id=":13e6c_0" function="internal">
        <lane id=":13e6c_0_0" index="0" allow="rail rail_electric" speed="0.10" length="0.10" shape="4832.22,6693.01 4832.22,6693.01"/>
    </edge>
    <edge id=":1407c_0" function="internal">
        <lane id=":1407c_0_0" index="0" allow="rail rail_electric" speed="0.10" length="0.10" shape="4494.10,6968.55 4494.10,6968.55"/>
    </edge>
    <edge id=":15820_0" function="internal">
        <lane id=":15820_0_0" index="0" allow="rail rail_electric" speed="0.10" length="0.10" shape="3769.20,7109.58 3769.20,7109.58"/>
    </edge>
    <edge id=":15cee_0" function="internal" bidi=":15cee_3">
        <lane id=":15cee_0_0" index="0" allow="rail rail_electric" speed="110.00" length="32.51" shape="4034.33,7317.50 4028.10,7285.59"/>
    </edge>
    <edge id=":15cee_1" function="internal" bidi=":15cee_2">
        <lane id=":15cee_1_0" index="0" allow="rail rail_electric" speed="110.00" length="32.51" shape="4037.66,7316.66 4035.58,7310.51 4032.63,7301.20 4029.80,7291.84 4028.10,7285.59"/>
    </edge>
    <edge id=":15cee_2" function="internal" bidi=":15cee_1">
        <lane id=":15cee_2_0" index="0" allow="rail rail_electric" speed="110.00" length="32.51" shape="4028.10,7285.59 4029.80,7291.84 4032.63,7301.20 4035.58,7310.51 4037.66,7316.66"/>
    </edge>
    <edge id=":15cee_3" function="internal" bidi=":15cee_0">
        <lane id=":15cee_3_0" index="0" allow="rail rail_electric" speed="110.00" length="32.51" shape="4028.10,7285.59 4034.33,7317.50"/>
    </edge>
    <edge id=":168d9_0" function="internal" bidi=":168d9_3">
        <lane id=":168d9_0_0" index="0" allow="rail rail_electric" speed="110.00" length="57.38" shape="5988.08,7680.82 5931.26,7688.76"/>
    </edge>
    <edge id=":168d9_1" function="internal" bidi=":168d9_2">
        <lane id=":168d9_1_0" index="0" allow="rail rail_electric" speed="110.00" length="57.38" shape="5987.54,7677.58 5931.26,7688.76"/>
    </edge>
    <edge id=":168d9_2" function="internal" bidi=":168d9_1">
        <lane id=":168d9_2_0" index="0" allow="rail rail_electric" speed="110.00" length="57.38" shape="5931.26,7688.76 5987.54,7677.58"/>
    </edge>
    <edge id=":168d9_3" function="internal" bidi=":168d9_0">
        <lane id=":168d9_3_0" index="0" allow="rail rail_electric" speed="110.00" length="57.38" shape="5931.26,7688.76 5988.08,7680.82"/>
    </edge>
    <edge id=":16b63_0" function="internal" bidi=":16b63_2">
        <lane id=":16b63_0_0" index="0" allow="rail rail_electric" speed="110.00" length="2.97" shape="6060.04,5903.66 6057.14,5904.28"/>
    </edge>
    <edge id=":16b63_1" function="internal" bidi=":16b63_3">
        <lane id=":16b63_1_0" index="0" allow="rail rail_electric" speed="110.00" length="3.01" shape="6060.04,5903.66 6057.09,5904.24"/>
    </edge>
    <edge id=":16b63_2" function="internal" bidi=":16b63_0">
        <lane id=":16b63_2_0" index="0" allow="rail rail_electric" speed="110.00" length="2.97" shape="6057.14,5904.28 6060.04,5903.66"/>
    </edge>
    <edge id=":16b63_3" function="internal" bidi=":16b63_1">
        <lane id=":16b63_3_0" index="0" allow="rail rail_electric" speed="110.00" length="3.01" shape="6057.09,5904.24 6060.04,5903.66"/>
    </edge>
    <edge id=":17551_0" function="internal" bidi=":17551_3">
        <lane id=":17551_0_0" index="0" allow="rail rail_electric" speed="110.00" length="76.62" shape="7611.37,5586.14 7536.23,5601.15"/>
    </edge>
    <edge id=":17551_1" function="internal" bidi=":17551_2">
        <lane id=":17551_1_0" index="0" allow="rail rail_electric" speed="110.00" length="76.63" shape="7611.37,5586.14 7535.65,5597.91"/>
    </edge>
    <edge id=":17551_2" function="internal" bidi=":17551_1">
        <lane id=":17551_2_0" index="0" allow="rail rail_electric" speed="110.00" length="76.63" shape="7535.65,5597.91 7611.37,5586.14"/>
    </edge>
    <edge id=":17551_3" function="internal" bidi=":17551_0">
        <lane id=":17551_3_0" index="0" allow="rail rail_electric" speed="110.00" length="76.62" shape="7536.23,5601.15 7611.37,5586.14"/>
    </edge>
    <edge id=":1aaf4_0" function="internal" bidi=":1aaf4_3">
        <lane id=":1aaf4_0_0" index="0" allow="rail rail_electric" speed="110.00" length="39.57" shape="4201.24,7984.90 4162.03,7990.22"/>
    </edge>
    <edge id=":1aaf4_1" function="internal" bidi=":1aaf4_2">
        <lane id=":1aaf4_1_0" index="0" allow="rail rail_electric" speed="110.00" length="39.57" shape="4200.65,7981.63 4162.03,7990.22"/>
    </edge>
    <edge id=":1aaf4_2" function="internal" bidi=":1aaf4_1">
        <lane id=":1aaf4_2_0" index="0" allow="rail rail_electric" speed="110.00" length="39.57" shape="4162.03,7990.22 4200.65,7981.63"/>
    </edge>
    <edge id=":1aaf4_3" function="internal" bidi=":1aaf4_0">
        <lane id=":1aaf4_3_0" index="0" allow="rail rail_electric" speed="110.00" length="39.57" shape="4162.03,7990.22 4201.24,7984.90"/>
    </edge>
    <edge id=":1b846_0" function="internal" bidi=":1b846_3">
        <lane id=":1b846_0_0" index="0" allow="rail rail_electric" speed="110.00" length="29.66" shape="1658.65,7752.34 1655.25,7747.34 1650.31,7740.07 1645.28,7732.87 1641.63,7728.06"/>
    </edge>
    <edge id=":1b846_1" function="internal" bidi=":1b846_2">
        <lane id=":1b846_1_0" index="0" allow="rail rail_electric" speed="110.00" length="29.66" shape="1661.30,7750.26 1641.63,7728.06"/>
    </edge>
    <edge id=":1b846_2" function="internal" bidi=":1b846_1">
        <lane id=":1b846_2_0" index="0" allow="rail rail_electric" speed="110.00" length="29.66" shape="1641.63,7728.06 1661.30,7750.26"/>
    </edge>
    <edge id=":1b846_3" function="internal" bidi=":1b846_0">
        <lane id=":1b846_3_0" index="0" allow="rail rail_electric" speed="110.00" length="29.66" shape="1641.63,7728.06 1645.28,7732.87 1650.31,7740.07 1655.25,7747.34 1658.65,7752.34"/>
    </edge>
    <edge id=":1c6af_0" function="internal" bidi=":1c6af_3">
        <lane id=":1c6af_0_0" index="0" allow="rail rail_electric" speed="110.00" length="18.88" shape="10602.80,3617.46 10593.62,3633.95"/>
    </edge>
    <edge id=":1c6af_1" function="internal" bidi=":1c6af_2">
        <lane id=":1c6af_1_0" index="0" allow="rail rail_electric" speed="110.00" length="18.87" shape="10602.80,3617.46 10600.35,3621.03 10597.09,3624.92 10593.67,3628.71 10590.76,3631.96"/>
    </edge>
    <edge id=":1c6af_2" function="internal" bidi=":1c6af_1">
        <lane id=":1c6af_2_0" index="0" allow="rail rail_electric" speed="110.00" length="18.87" shape="10590.76,3631.96 10593.67,3628.71 10597.09,3624.92 10600.35,3621.03 10602.80,3617.46"/>
    </edge>
    <edge id=":1c6af_3" function="internal" bidi=":1c6af_0">
        <lane id=":1c6af_3_0" index="0" allow="rail rail_electric" speed="110.00" length="18.88" shape="10593.62,3633.95 10602.80,3617.46"/>
    </edge>
    <edge id=":1c902_0" function="internal" bidi=":1c902_3">
        <lane id=":1c902_0_0" index="0" allow="rail rail_electric" speed="110.00" length="27.99" shape="4171.18,7653.49 4167.91,7648.73 4163.63,7641.73 4159.45,7634.64 4156.51,7629.66"/>
    </edge>
    <edge id=":1c902_1" function="internal" bidi=":1c902_2">
        <lane id=":1c902_1_0" index="0" allow="rail rail_electric" speed="110.00" length="27.97" shape="4171.18,7653.49 4168.30,7648.53 4164.92,7641.06 4161.74,7633.45 4159.52,7628.10"/>
    </edge>
    <edge id=":1c902_2" function="internal" bidi=":1c902_1">
        <lane id=":1c902_2_0" index="0" allow="rail rail_electric" speed="110.00" length="27.97" shape="4159.52,7628.10 4161.74,7633.45 4164.92,7641.06 4168.30,7648.53 4171.18,7653.49"/>
    </edge>
    <edge id=":1c902_3" function="internal" bidi=":1c902_0">
        <lane id=":1c902_3_0" index="0" allow="rail rail_electric" speed="110.00" length="27.99" shape="4156.51,7629.66 4159.45,7634.64 4163.63,7641.73 4167.91,7648.73 4171.18,7653.49"/>
    </edge>
    <edge id=":1cd4b_0" function="internal" bidi=":1cd4b_3">
        <lane id=":1cd4b_0_0" index="0" allow="rail rail_electric" speed="110.00" length="57.11" shape="4909.54,6696.99 4853.53,6708.15"/>
    </edge>
    <edge id=":1cd4b_1" function="internal" bidi=":1cd4b_2">
        <lane id=":1cd4b_1_0" index="0" allow="rail rail_electric" speed="110.00" length="57.10" shape="4908.80,6693.78 4853.53,6708.15"/>
    </edge>
    <edge id=":1cd4b_2" function="internal" bidi=":1cd4b_1">
        <lane id=":1cd4b_2_0" index="0" allow="rail rail_electric" speed="110.00" length="57.10" shape="4853.53,6708.15 4908.80,6693.78"/>
    </edge>
    <edge id=":1cd4b_3" function="internal" bidi=":1cd4b_0">
        <lane id=":1cd4b_3_0" index="0" allow="rail rail_electric" speed="110.00" length="57.11" shape="4853.53,6708.15 4909.54,6696.99"/>
    </edge>
    <edge id=":1ce6d_0" function="internal" bidi=":1ce6d_3">
        <lane id=":1ce6d_0_0" index="0" allow="rail rail_electric" speed="110.00" length="62.54" shape="4969.59,7880.86 4908.24,7893.05"/>
    </edge>