<connections>
<!-- Point 01890 4f86aea6-0a4e-4abd-988e-1d2a6ad01890 -->
<connection from="0b640-0" to="a5979-0"/>
<connection from="0b640-0" to="a5979-0-re"/>
<connection from="0b640-0-re" to="a5979-0"/>
<connection from="0b640-0-re" to="a5979-0-re"/>
<connection from="3ded4-0" to="a5979-0"/>
<connection from="3ded4-0" to="a5979-0-re"/>
<connection from="3ded4-0-re" to="a5979-0"/>
<connection from="3ded4-0-re" to="a5979-0-re"/>
<connection from="a5979-0" to="0b640-0"/>
<connection from="a5979-0" to="3ded4-0"/>
<connection from="a5979-0" to="0b640-0-re"/>
<connection from="a5979-0" to="3ded4-0-re"/>
<connection from="a5979-0-re" to="0b640-0"/>
<connection from="a5979-0-re" to="3ded4-0"/>
<connection from="a5979-0-re" to="0b640-0-re"/>
<connection from="a5979-0-re" to="3ded4-0-re"/>
<!-- Point cf65b 0112883e-1a34-4327-ab69-4dec8fbcf65b -->
<connection from="0907c-0" to="3ded4-0"/>
<connection from="0907c-0" to="3ded4-0-re"/>
<connection from="0907c-0-re" to="3ded4-0"/>
<connection from="0907c-0-re" to="3ded4-0-re"/>
<connection from="c52b6-0" to="3ded4-0"/>
<connection from="c52b6-0" to="3ded4-0-re"/>
<connection from="c52b6-0-re" to="3ded4-0"/>
<connection from="c52b6-0-re" to="3ded4-0-re"/>
<connection from="3ded4-0" to="0907c-0"/>
<connection from="3ded4-0" to="c52b6-0"/>
<connection from="3ded4-0" to="0907c-0-re"/>
<connection from="3ded4-0" to="c52b6-0-re"/>
<connection from="3ded4-0-re" to="0907c-0"/>
<connection from="3ded4-0-re" to="c52b6-0"/>
<connection from="3ded4-0-re" to="0907c-0-re"/>
<connection from="3ded4-0-re" to="c52b6-0-re"/>
<!-- Point d2fb0 64d25714-6951-4b92-b4ac-0985323d2fb0 -->
<connection from="81bfa-0" to="8dcf7-0"/>
<connection from="81bfa-0" to="8dcf7-0-re"/>
<connection from="81bfa-0-re" to="8dcf7-0"/>
<connection from="81bfa-0-re" to="8dcf7-0-re"/>
<connection from="0907c-0" to="8dcf7-0"/>
<connection from="0907c-0" to="8dcf7-0-re"/>
<connection from="0907c-0-re" to="8dcf7-0"/>
<connection from="0907c-0-re" to="8dcf7-0-re"/>
<connection from="8dcf7-0" to="81bfa-0"/>
<connection from="8dcf7-0" to="0907c-0"/>
<connection from="8dcf7-0" to="81bfa-0-re"/>
<connection from="8dcf7-0" to="0907c-0-re"/>
<connection from="8dcf7-0-re" to="81bfa-0"/>
<connection from="8dcf7-0-re" to="0907c-0"/>
<connection from="8dcf7-0-re" to="81bfa-0-re"/>
<connection from="8dcf7-0-re" to="0907c-0-re"/>
<!-- Point 070e4 89e86554-e14f-482c-83c6-5a84b7a070e4 -->
<connection from="8dcf7-0" to="07e4e-0"/>
<connection from="8dcf7-0" to="07e4e-0-re"/>
<connection from="8dcf7-0-re" to="07e4e-0"/>
<connection from="8dcf7-0-re" to="07e4e-0-re"/>
<connection from="838b9-0" to="07e4e-0"/>
<connection from="838b9-0" to="07e4e-0-re"/>
<connection from="838b9-0-re" to="07e4e-0"/>
<connection from="838b9-0-re" to="07e4e-0-re"/>
<connection from="07e4e-0" to="8dcf7-0"/>
<connection from="07e4e-0" to="838b9-0"/>
<connection from="07e4e-0" to="8dcf7-0-re"/>
<connection from="07e4e-0" to="838b9-0-re"/>
<connection from="07e4e-0-re" to="8dcf7-0"/>
<connection from="07e4e-0-re" to="838b9-0"/>
<connection from="07e4e-0-re" to="8dcf7-0-re"/>
<connection from="07e4e-0-re" to="838b9-0-re"/>
<!-- Point 53cf5 3469a86a-2090-4a0d-837f-884b83353cf5 -->
<connection from="6f557-0" to="31e86-0"/>
<connection from="6f557-0" to="31e86-0-re"/>
<connection from="6f557-0-re" to="31e86-0"/>
<connection from="6f557-0-re" to="31e86-0-re"/>
<connection from="53cb4-0" to="31e86-0"/>
<connection from="53cb4-0" to="31e86-0-re"/>
<connection from="53cb4-0-re" to="31e86-0"/>
<connection from="53cb4-0-re" to="31e86-0-re"/>
<connection from="31e86-0" to="6f557-0"/>
<connection from="31e86-0" to="53cb4-0"/>
<connection from="31e86-0" to="6f557-0-re"/>
<connection from="31e86-0" to="53cb4-0-re"/>
<connection from="31e86-0-re" to="6f557-0"/>
<connection from="31e86-0-re" to="53cb4-0"/>
<connection from="31e86-0-re" to="6f557-0-re"/>
<connection from="31e86-0-re" to="53cb4-0-re"/>
<!-- Point 63639 1c5d076c-1039-4155-9cbe-5f6dbd863639 -->
<connection from="debda-0" to="8b99b-0"/>
<connection from="debda-0" to="8b99b-0-re"/>
<connection from="debda-0-re" to="8b99b-0"/>
<connection from="debda-0-re" to="8b99b-0-re"/>
<connection from="53cb4-0" to="8b99b-0"/>
<connection from="53cb4-0" to="8b99b-0-re"/>
<connection from="53cb4-0-re" to="8b99b-0"/>
<connection from="53cb4-0-re" to="8b99b-0-re"/>
<connection from="8b99b-0" to="debda-0"/>
<connection from="8b99b-0" to="53cb4-0"/>
<connection from="8b99b-0" to="debda-0-re"/>
<connection from="8b99b-0" to="53cb4-0-re"/>
<connection from="8b99b-0-re" to="debda-0"/>
<connection from="8b99b-0-re" to="53cb4-0"/>
<connection from="8b99b-0-re" to="debda-0-re"/>
<connection from="8b99b-0-re" to="53cb4-0-re"/>
<!-- Point 9c46d 269d7177-d8d5-4c6d-b8ae-b014edd9c46d -->
<connection from="3709a-0" to="8ffc5-0"/>
<connection from="3709a-0" to="8ffc5-0-re"/>
<connection from="3709a-0-re" to="8ffc5-0"/>
<connection from="3709a-0-re" to="8ffc5-0-re"/>
<connection from="3a6f7-0" to="8ffc5-0"/>
<connection from="3a6f7-0" to="8ffc5-0-re"/>
<connection from="3a6f7-0-re" to="8ffc5-0"/>
<connection from="3a6f7-0-re" to="8ffc5-0-re"/>
<connection from="8ffc5-0" to="3709a-0"/>
<connection from="8ffc5-0" to="3a6f7-0"/>
<connection from="8ffc5-0" to="3709a-0-re"/>
<connection from="8ffc5-0" to="3a6f7-0-re"/>
<connection from="8ffc5-0-re" to="3709a-0"/>
<connection from="8ffc5-0-re" to="3a6f7-0"/>
<connection from="8ffc5-0-re" to="3709a-0-re"/>
<connection from="8ffc5-0-re" to="3a6f7-0-re"/>
<!-- Point 4358f 03e7e59a-905c-405b-863e-33e07624358f -->
<connection from="f86e2-0" to="e276f-0"/>
<connection from="f86e2-0" to="e276f-0-re"/>
<connection from="f86e2-0-re" to="e276f-0"/>
<connection from="f86e2-0-re" to="e276f-0-re"/>
<connection from="f095a-0" to="e276f-0"/>
<connection from="f095a-0" to="e276f-0-re"/>
<connection from="f095a-0-re" to="e276f-0"/>
<connection from="f095a-0-re" to="e276f-0-re"/>
<connection from="e276f-0" to="f86e2-0"/>
<connection from="e276f-0" to="f095a-0"/>
<connection from="e276f-0" to="f86e2-0-re"/>
<connection from="e276f-0" to="f095a-0-re"/>
<connection from="e276f-0-re" to="f86e2-0"/>
<connection from="e276f-0-re" to="f095a-0"/>
<connection from="e276f-0-re" to="f86e2-0-re"/>
<connection from="e276f-0-re" to="f095a-0-re"/>
<!-- Point 1285c 3593f80c-1746-415c-a58a-5c06f711285c -->
<connection from="14ddd-0" to="f095a-0"/>
<connection from="14ddd-0" to="f095a-0-re"/>
<connection from="14ddd-0-re" to="f095a-0"/>
<connection from="14ddd-0-re" to="f095a-0-re"/>
<connection from="ab8ca-0" to="f095a-0"/>
<connection from="ab8ca-0" to="f095a-0-re"/>
<connection from="ab8ca-0-re" to="f095a-0"/>
<connection from="ab8ca-0-re" to="f095a-0-re"/>
<connection from="f095a-0" to="14ddd-0"/>
<connection from="f095a-0" to="ab8ca-0"/>
<connection from="f095a-0" to="14ddd-0-re"/>
<connection from="f095a-0" to="ab8ca-0-re"/>
<connection from="f095a-0-re" to="14ddd-0"/>
<connection from="f095a-0-re" to="ab8ca-0"/>
<connection from="f095a-0-re" to="14ddd-0-re"/>
<connection from="f095a-0-re" to="ab8ca-0-re"/>
<!-- Point 2cab4 6ba021f5-1705-4292-8961-0de3b342cab4 -->
<connection from="ce07f-0" to="5cbd4-0"/>
<connection from="ce07f-0" to="5cbd4-0-re"/>
<connection from="ce07f-0-re" to="5cbd4-0"/>
<connection from="ce07f-0-re" to="5cbd4-0-re"/>
<connection from="ab8ca-0" to="5cbd4-0"/>
<connection from="ab8ca-0" to="5cbd4-0-re"/>
<connection from="ab8ca-0-re" to="5cbd4-0"/>
<connection from="ab8ca-0-re" to="5cbd4-0-re"/>
<connection from="5cbd4-0" to="ce07f-0"/>
<connection from="5cbd4-0" to="ab8ca-0"/>
<connection from="5cbd4-0" to="ce07f-0-re"/>
<connection from="5cbd4-0" to="ab8ca-0-re"/>
<connection from="5cbd4-0-re" to="ce07f-0"/>
<connection from="5cbd4-0-re" to="ab8ca-0"/>
<connection from="5cbd4-0-re" to="ce07f-0-re"/>
<connection from="5cbd4-0-re" to="ab8ca-0-re"/>
<!-- Point 7d119 f6db0b4f-3208-4820-90f1-3ca5ebe7d119 -->
<connection from="5cbd4-0" to="49546-0"/>
<connection from="5cbd4-0" to="49546-0-re"/>
<connection from="5cbd4-0-re" to="49546-0"/>
<connection from="5cbd4-0-re" to="49546-0-re"/>
<connection from="bec8f-0" to="49546-0"/>
<connection from="bec8f-0" to="49546-0-re"/>
<connection from="bec8f-0-re" to="49546-0"/>
<connection from="bec8f-0-re" to="49546-0-re"/>
<connection from="49546-0" to="5cbd4-0"/>
<connection from="49546-0" to="bec8f-0"/>
<connection from="49546-0" to="5cbd4-0-re"/>
<connection from="49546-0" to="bec8f-0-re"/>
<connection from="49546-0-re" to="5cbd4-0"/>
<connection from="49546-0-re" to="bec8f-0"/>
<connection from="49546-0-re" to="5cbd4-0-re"/>
<connection from="49546-0-re" to="bec8f-0-re"/>
<!-- Point a0070 631b366c-79cb-4c0c-8ca2-a90644fa0070 -->
<connection from="49546-0" to="37606-0"/>
<connection from="49546-0" to="37606-0-re"/>
<connection from="49546-0-re" to="37606-0"/>
<connection from="49546-0-re" to="37606-0-re"/>
<connection from="88f4b-0" to="37606-0"/>
<connection from="88f4b-0" to="37606-0-re"/>
<connection from="88f4b-0-re" to="37606-0"/>
<connection from="88f4b-0-re" to="37606-0-re"/>
<connection from="37606-0" to="49546-0"/>
<connection from="37606-0" to="88f4b-0"/>
<connection from="37606-0" to="49546-0-re"/>
<connection from="37606-0" to="88f4b-0-re"/>
<connection from="37606-0-re" to="49546-0"/>
<connection from="37606-0-re" to="88f4b-0"/>
<connection from="37606-0-re" to="49546-0-re"/>
<connection from="37606-0-re" to="88f4b-0-re"/>
<!-- Point b62b6 cff0cab8-1df7-4749-97a6-766f85eb62b6 -->
<connection from="e1497-0" to="37606-0"/>
<connection from="e1497-0" to="37606-0-re"/>
<connection from="e1497-0-re" to="37606-0"/>
<connection from="e1497-0-re" to="37606-0-re"/>
<connection from="81dc8-0" to="37606-0"/>
<connection from="81dc8-0" to="37606-0-re"/>
<connection from="81dc8-0-re" to="37606-0"/>
<connection from="81dc8-0-re" to="37606-0-re"/>
<connection from="37606-0" to="e1497-0"/>
<connection from="37606-0" to="81dc8-0"/>
<connection from="37606-0" to="e1497-0-re"/>
<connection from="37606-0" to="81dc8-0-re"/>
<connection from="37606-0-re" to="e1497-0"/>
<connection from="37606-0-re" to="81dc8-0"/>
<connection from="37606-0-re" to="e1497-0-re"/>
<connection from="37606-0-re" to="81dc8-0-re"/>
<!-- Point 933ac 438257e5-1103-4125-86b1-af4134a933ac -->
<connection from="7cda5-0" to="ac2bf-0"/>
<connection from="7cda5-0" to="ac2bf-0-re"/>
<connection from="7cda5-0-re" to="ac2bf-0"/>
<connection from="7cda5-0-re" to="ac2bf-0-re"/>
<connection from="81dc8-0" to="ac2bf-0"/>
<connection from="81dc8-0" to="ac2bf-0-re"/>
<connection from="81dc8-0-re" to="ac2bf-0"/>
<connection from="81dc8-0-re" to="ac2bf-0-re"/>
<connection from="ac2bf-0" to="7cda5-0"/>
<connection from="ac2bf-0" to="81dc8-0"/>
<connection from="ac2bf-0" to="7cda5-0-re"/>
<connection from="ac2bf-0" to="81dc8-0-re"/>
<connection from="ac2bf-0-re" to="7cda5-0"/>
<connection from="ac2bf-0-re" to="81dc8-0"/>
<connection from="ac2bf-0-re" to="7cda5-0-re"/>
<connection from="ac2bf-0-re" to="81dc8-0-re"/>

<!-- Point 0a1c8 38b2660d-7443-48c1-9cef-ed547d30a1c8 -->
<connection from="f2168-0" to="7c41e-0"/>
<connection from="f2168-0" to="7c41e-0-re"/>
<connection from="f2168-0-re" to="7c41e-0"/>
<connection from="f2168-0-re" to="7c41e-0-re"/>
<connection from="f9e58-0" to="7c41e-0"/>
<connection from="f9e58-0" to="7c41e-0-re"/>
<connection from="f9e58-0-re" to="7c41e-0"/>
<connection from="f9e58-0-re" to="7c41e-0-re"/>
<connection from="7c41e-0" to="f2168-0"/>
<connection from="7c41e-0" to="f9e58-0"/>
<connection from="7c41e-0" to="f2168-0-re"/>
<connection from="7c41e-0" to="f9e58-0-re"/>
<connection from="7c41e-0-re" to="f2168-0"/>
<connection from="7c41e-0-re" to="f9e58-0"/>
<connection from="7c41e-0-re" to="f2168-0-re"/>
<connection from="7c41e-0-re" to="f9e58-0-re"/>
<!-- Point b6d4f 54c3da59-b41c-49a8-a6fb-c325f17b6d4f -->
<connection from="f2168-0" to="47ab2-0"/>
<connection from="f2168-0" to="47ab2-0-re"/>
<connection from="f2168-0-re" to="47ab2-0"/>
<connection from="f2168-0-re" to="47ab2-0-re"/>
<connection from="42740-0" to="47ab2-0"/>
<connection from="42740-0" to="47ab2-0-re"/>
<connection from="42740-0-re" to="47ab2-0"/>
<connection from="42740-0-re" to="47ab2-0-re"/>
<connection from="47ab2-0" to="f2168-0"/>
<connection from="47ab2-0" to="42740-0"/>
<connection from="47ab2-0" to="f2168-0-re"/>
<connection from="47ab2-0" to="42740-0-re"/>
<connection from="47ab2-0-re" to="f2168-0"/>
<connection from="47ab2-0-re" to="42740-0"/>
<connection from="47ab2-0-re" to="f2168-0-re"/>
<connection from="47ab2-0-re" to="42740-0-re"/>
<!-- Point ab2c2 20fc269e-4617-4fad-836e-14b332eab2c2 -->
<connection from="2ba41-0" to="47ab2-0"/>
<connection from="2ba41-0" to="47ab2-0-re"/>
<connection from="2ba41-0-re" to="47ab2-0"/>
<connection from="2ba41-0-re" to="47ab2-0-re"/>
<connection from="def40-0" to="47ab2-0"/>
<connection from="def40-0" to="47ab2-0-re"/>
<connection from="def40-0-re" to="47ab2-0"/>
<connection from="def40-0-re" to="47ab2-0-re"/>
<connection from="47ab2-0" to="2ba41-0"/>
<connection from="47ab2-0" to="def40-0"/>
<connection from="47ab2-0" to="2ba41-0-re"/>
<connection from="47ab2-0" to="def40-0-re"/>
<connection from="47ab2-0-re" to="2ba41-0"/>
<connection from="47ab2-0-re" to="def40-0"/>
<connection from="47ab2-0-re" to="2ba41-0-re"/>
<connection from="47ab2-0-re" to="def40-0-re"/>
<!-- Point 6ce5c 104d398f-0880-4cc2-bf87-e8b71016ce5c -->
<connection from="434c8-0" to="09c90-0"/>
<connection from="434c8-0" to="09c90-0-re"/>
<connection from="434c8-0-re" to="09c90-0"/>
<connection from="434c8-0-re" to="09c90-0-re"/>
<connection from="e2e26-0" to="09c90-0"/>
<connection from="e2e26-0" to="09c90-0-re"/>
<connection from="e2e26-0-re" to="09c90-0"/>
<connection from="e2e26-0-re" to="09c90-0-re"/>
<connection from="09c90-0" to="434c8-0"/>
<connection from="09c90-0" to="e2e26-0"/>
<connection from="09c90-0" to="434c8-0-re"/>
<connection from="09c90-0" to="e2e26-0-re"/>
<connection from="09c90-0-re" to="434c8-0"/>
<connection from="09c90-0-re" to="e2e26-0"/>
<connection from="09c90-0-re" to="434c8-0-re"/>
<connection from="09c90-0-re" to="e2e26-0-re"/>
<!-- Point 27e21 2070dc47-fd1b-4969-b11a-a26925527e21 -->
<connection from="1e59a-0" to="8b99b-0"/>
<connection from="1e59a-0" to="8b99b-0-re"/>
<connection from="1e59a-0-re" to="8b99b-0"/>
<connection from="1e59a-0-re" to="8b99b-0-re"/>
<connection from="4baff-0" to="8b99b-0"/>
<connection from="4baff-0" to="8b99b-0-re"/>
<connection from="4baff-0-re" to="8b99b-0"/>
<connection from="4baff-0-re" to="8b99b-0-re"/>
<connection from="8b99b-0" to="1e59a-0"/>
<connection from="8b99b-0" to="4baff-0"/>
<connection from="8b99b-0" to="1e59a-0-re"/>
<connection from="8b99b-0" to="4baff-0-re"/>
<connection from="8b99b-0-re" to="1e59a-0"/>
<connection from="8b99b-0-re" to="4baff-0"/>
<connection from="8b99b-0-re" to="1e59a-0-re"/>
<connection from="8b99b-0-re" to="4baff-0-re"/>
<!-- Point c4df3 c976a178-07bc-4f98-944b-70392f1c4df3 -->
<connection from="75abe-0" to="b182e-0"/>
<connection from="75abe-0" to="b182e-0-re"/>
<connection from="75abe-0-re" to="b182e-0"/>
<connection from="75abe-0-re" to="b182e-0-re"/>
<connection from="1e59a-0" to="b182e-0"/>
<connection from="1e59a-0" to="b182e-0-re"/>
<connection from="1e59a-0-re" to="b182e-0"/>
<connection from="1e59a-0-re" to="b182e-0-re"/>
<connection from="b182e-0" to="75abe-0"/>
<connection from="b182e-0" to="1e59a-0"/>
<connection from="b182e-0" to="75abe-0-re"/>
<connection from="b182e-0" to="1e59a-0-re"/>
<connection from="b182e-0-re" to="75abe-0"/>
<connection from="b182e-0-re" to="1e59a-0"/>
<connection from="b182e-0-re" to="75abe-0-re"/>
<connection from="b182e-0-re" to="1e59a-0-re"/>
<!-- Point df653 8db42d61-9f26-493a-a507-606fddfdf653 -->
<connection from="596bb-0" to="b182e-0"/>
<connection from="596bb-0" to="b182e-0-re"/>
<connection from="596bb-0-re" to="b182e-0"/>
<connection from="596bb-0-re" to="b182e-0-re"/>
<connection from="66958-0" to="b182e-0"/>
<connection from="66958-0" to="b182e-0-re"/>
<connection from="66958-0-re" to="b182e-0"/>
<connection from="66958-0-re" to="b182e-0-re"/>
<connection from="b182e-0" to="596bb-0"/>
<connection from="b182e-0" to="66958-0"/>
<connection from="b182e-0" to="596bb-0-re"/>
<connection from="b182e-0" to="66958-0-re"/>
<connection from="b182e-0-re" to="596bb-0"/>
<connection from="b182e-0-re" to="66958-0"/>
<connection from="b182e-0-re" to="596bb-0-re"/>
<connection from="b182e-0-re" to="66958-0-re"/>
<!-- Point f1d9f 9c586693-a737-4241-bf70-e1faaa5f1d9f -->
<connection from="66958-0" to="8ffc5-0"/>
<connection from="66958-0" to="8ffc5-0-re"/>
<connection from="66958-0-re" to="8ffc5-0"/>
<connection from="66958-0-re" to="8ffc5-0-re"/>
<connection from="9cbb4-0" to="8ffc5-0"/>
<connection from="9cbb4-0" to="8ffc5-0-re"/>
<connection from="9cbb4-0-re" to="8ffc5-0"/>
<connection from="9cbb4-0-re" to="8ffc5-0-re"/>
<connection from="8ffc5-0" to="66958-0"/>
<connection from="8ffc5-0" to="9cbb4-0"/>
<connection from="8ffc5-0" to="66958-0-re"/>
<connection from="8ffc5-0" to="9cbb4-0-re"/>
<connection from="8ffc5-0-re" to="66958-0"/>
<connection from="8ffc5-0-re" to="9cbb4-0"/>
<connection from="8ffc5-0-re" to="66958-0-re"/>
<connection from="8ffc5-0-re" to="9cbb4-0-re"/>
<!-- Point 243a0 d41cf0c0-0d1c-4025-bb77-c6c3900243a0 -->
<connection from="2b612-0" to="3d461-0"/>
<connection from="2b612-0" to="3d461-0-re"/>
<connection from="2b612-0-re" to="3d461-0"/>
<connection from="2b612-0-re" to="3d461-0-re"/>
<connection from="09c90-0" to="3d461-0"/>
<connection from="09c90-0" to="3d461-0-re"/>
<connection from="09c90-0-re" to="3d461-0"/>
<connection from="09c90-0-re" to="3d461-0-re"/>
<connection from="3d461-0" to="2b612-0"/>
<connection from="3d461-0" to="09c90-0"/>
<connection from="3d461-0" to="2b612-0-re"/>
<connection from="3d461-0" to="09c90-0-re"/>
<connection from="3d461-0-re" to="2b612-0"/>
<connection from="3d461-0-re" to="09c90-0"/>
<connection from="3d461-0-re" to="2b612-0-re"/>
<connection from="3d461-0-re" to="09c90-0-re"/>

<!-- Point 203ef 2f9b9a52-8ed7-4bda-83d8-b91e61d203ef -->
<connection from="435e7-0" to="f49c7-0"/>
<connection from="435e7-0" to="f49c7-0-re"/>
<connection from="435e7-0-re" to="f49c7-0"/>
<connection from="435e7-0-re" to="f49c7-0-re"/>
<connection from="f4e58-0" to="f49c7-0"/>
<connection from="f4e58-0" to="f49c7-0-re"/>
<connection from="f4e58-0-re" to="f49c7-0"/>
<connection from="f4e58-0-re" to="f49c7-0-re"/>
<connection from="f49c7-0" to="435e7-0"/>
<connection from="f49c7-0" to="f4e58-0"/>
<connection from="f49c7-0" to="435e7-0-re"/>
<connection from="f49c7-0" to="f4e58-0-re"/>
<connection from="f49c7-0-re" to="435e7-0"/>
<connection from="f49c7-0-re" to="f4e58-0"/>
<connection from="f49c7-0-re" to="435e7-0-re"/>
<connection from="f49c7-0-re" to="f4e58-0-re"/>

<!-- Point 138f6 7a76beb3-a408-48a5-ad09-5cfcaa4138f6 -->
<connection from="f49c7-0" to="5a2dd-0"/>
<connection from="f49c7-0" to="5a2dd-0-re"/>
<connection from="f49c7-0-re" to="5a2dd-0"/>
<connection from="f49c7-0-re" to="5a2dd-0-re"/>
<connection from="d4856-0" to="5a2dd-0"/>
<connection from="d4856-0" to="5a2dd-0-re"/>
<connection from="d4856-0-re" to="5a2dd-0"/>
<connection from="d4856-0-re" to="5a2dd-0-re"/>
<connection from="5a2dd-0" to="f49c7-0"/>
<connection from="5a2dd-0" to="d4856-0"/>
<connection from="5a2dd-0" to="f49c7-0-re"/>
<connection from="5a2dd-0" to="d4856-0-re"/>
<connection from="5a2dd-0-re" to="f49c7-0"/>
<connection from="5a2dd-0-re" to="d4856-0"/>
<connection from="5a2dd-0-re" to="f49c7-0-re"/>
<connection from="5a2dd-0-re" to="d4856-0-re"/>
<!-- Point 8e83f a2ee4701-d007-4e45-bdc2-cb251288e83f -->
<connection from="23da6-0" to="2cfb2-0"/>
<connection from="23da6-0" to="2cfb2-0-re"/>
<connection from="23da6-0-re" to="2cfb2-0"/>
<connection from="23da6-0-re" to="2cfb2-0-re"/>
<connection from="5a2dd-0" to="2cfb2-0"/>
<connection from="5a2dd-0" to="2cfb2-0-re"/>
<connection from="5a2dd-0-re" to="2cfb2-0"/>
<connection from="5a2dd-0-re" to="2cfb2-0-re"/>
<connection from="2cfb2-0" to="23da6-0"/>
<connection from="2cfb2-0" to="5a2dd-0"/>
<connection from="2cfb2-0" to="23da6-0-re"/>
<connection from="2cfb2-0" to="5a2dd-0-re"/>
<connection from="2cfb2-0-re" to="23da6-0"/>
<connection from="2cfb2-0-re" to="5a2dd-0"/>
<connection from="2cfb2-0-re" to="23da6-0-re"/>
<connection from="2cfb2-0-re" to="5a2dd-0-re"/>
<!-- Point 37bc4 8f795b2a-bce7-4fa2-8feb-2b1a52937bc4 -->
<connection from="d0805-0" to="2cfb2-0"/>
<connection from="d0805-0" to="2cfb2-0-re"/>
<connection from="d0805-0-re" to="2cfb2-0"/>
<connection from="d0805-0-re" to="2cfb2-0-re"/>
<connection from="7f7b9-0" to="2cfb2-0"/>
<connection from="7f7b9-0" to="2cfb2-0-re"/>
<connection from="7f7b9-0-re" to="2cfb2-0"/>
<connection from="7f7b9-0-re" to="2cfb2-0-re"/>
<connection from="2cfb2-0" to="d0805-0"/>
<connection from="2cfb2-0" to="7f7b9-0"/>
<connection from="2cfb2-0" to="d0805-0-re"/>
<connection from="2cfb2-0" to="7f7b9-0-re"/>
<connection from="2cfb2-0-re" to="d0805-0"/>
<connection from="2cfb2-0-re" to="7f7b9-0"/>
<connection from="2cfb2-0-re" to="d0805-0-re"/>
<connection from="2cfb2-0-re" to="7f7b9-0-re"/>
<!-- Point fb16e af6cc662-e21d-4754-8732-bed598bfb16e -->
<connection from="671b8-0" to="c5b91-0"/>
<connection from="671b8-0" to="c5b91-0-re"/>
<connection from="671b8-0-re" to="c5b91-0"/>
<connection from="671b8-0-re" to="c5b91-0-re"/>
<connection from="d0805-0" to="c5b91-0"/>
<connection from="d0805-0" to="c5b91-0-re"/>
<connection from="d0805-0-re" to="c5b91-0"/>
<connection from="d0805-0-re" to="c5b91-0-re"/>
<connection from="c5b91-0" to="671b8-0"/>
<connection from="c5b91-0" to="d0805-0"/>
<connection from="c5b91-0" to="671b8-0-re"/>
<connection from="c5b91-0" to="d0805-0-re"/>
<connection from="c5b91-0-re" to="671b8-0"/>
<connection from="c5b91-0-re" to="d0805-0"/>
<connection from="c5b91-0-re" to="671b8-0-re"/>
<connection from="c5b91-0-re" to="d0805-0-re"/>
<!-- Point 42132 49d32875-6616-43d9-b5bd-d5624b842132 -->
<connection from="1cdd2-0" to="c5b91-0"/>
<connection from="1cdd2-0" to="c5b91-0-re"/>
<connection from="1cdd2-0-re" to="c5b91-0"/>
<connection from="1cdd2-0-re" to="c5b91-0-re"/>
<connection from="e194e-0" to="c5b91-0"/>
<connection from="e194e-0" to="c5b91-0-re"/>
<connection from="e194e-0-re" to="c5b91-0"/>
<connection from="e194e-0-re" to="c5b91-0-re"/>
<connection from="c5b91-0" to="1cdd2-0"/>
<connection from="c5b91-0" to="e194e-0"/>
<connection from="c5b91-0" to="1cdd2-0-re"/>
<connection from="c5b91-0" to="e194e-0-re"/>
<connection from="c5b91-0-re" to="1cdd2-0"/>
<connection from="c5b91-0-re" to="e194e-0"/>
<connection from="c5b91-0-re" to="1cdd2-0-re"/>
<connection from="c5b91-0-re" to="e194e-0-re"/>
<!-- Point c5843 e7590ed5-9765-4986-8d17-e98bec3c5843 -->
<connection from="00e87-0" to="7cde7-0"/>
<connection from="00e87-0" to="7cde7-0-re"/>
<connection from="00e87-0-re" to="7cde7-0"/>
<connection from="00e87-0-re" to="7cde7-0-re"/>
<connection from="1cdd2-0" to="7cde7-0"/>
<connection from="1cdd2-0" to="7cde7-0-re"/>
<connection from="1cdd2-0-re" to="7cde7-0"/>
<connection from="1cdd2-0-re" to="7cde7-0-re"/>
<connection from="7cde7-0" to="00e87-0"/>
<connection from="7cde7-0" to="1cdd2-0"/>
<connection from="7cde7-0" to="00e87-0-re"/>
<connection from="7cde7-0" to="1cdd2-0-re"/>
<connection from="7cde7-0-re" to="00e87-0"/>
<connection from="7cde7-0-re" to="1cdd2-0"/>
<connection from="7cde7-0-re" to="00e87-0-re"/>
<connection from="7cde7-0-re" to="1cdd2-0-re"/>
<!-- Point 4444f 420b45e2-a211-4ef3-8592-ef5ae7a4444f -->
<connection from="7cde7-0" to="91e57-0"/>
<connection from="7cde7-0" to="91e57-0-re"/>
<connection from="7cde7-0-re" to="91e57-0"/>
<connection from="7cde7-0-re" to="91e57-0-re"/>
<connection from="383d7-0" to="91e57-0"/>
<connection from="383d7-0" to="91e57-0-re"/>
<connection from="383d7-0-re" to="91e57-0"/>
<connection from="383d7-0-re" to="91e57-0-re"/>
<connection from="91e57-0" to="7cde7-0"/>
<connection from="91e57-0" to="383d7-0"/>
<connection from="91e57-0" to="7cde7-0-re"/>
<connection from="91e57-0" to="383d7-0-re"/>
<connection from="91e57-0-re" to="7cde7-0"/>
<connection from="91e57-0-re" to="383d7-0"/>
<connection from="91e57-0-re" to="7cde7-0-re"/>
<connection from="91e57-0-re" to="383d7-0-re"/>
<!-- Point 038b6 f5340791-c00a-4d0c-a1f2-c3c191f038b6 -->
<connection from="85d0a-0" to="d7eba-0"/>
<connection from="85d0a-0" to="d7eba-0-re"/>
<connection from="85d0a-0-re" to="d7eba-0"/>
<connection from="85d0a-0-re" to="d7eba-0-re"/>
<connection from="8f846-0" to="d7eba-0"/>
<connection from="8f846-0" to="d7eba-0-re"/>
<connection from="8f846-0-re" to="d7eba-0"/>
<connection from="8f846-0-re" to="d7eba-0-re"/>
<connection from="d7eba-0" to="85d0a-0"/>
<connection from="d7eba-0" to="8f846-0"/>
<connection from="d7eba-0" to="85d0a-0-re"/>
<connection from="d7eba-0" to="8f846-0-re"/>
<connection from="d7eba-0-re" to="85d0a-0"/>
<connection from="d7eba-0-re" to="8f846-0"/>
<connection from="d7eba-0-re" to="85d0a-0-re"/>
<connection from="d7eba-0-re" to="8f846-0-re"/>
<!-- Point eb08f b0737b2e-0d86-4bea-b3f6-7987733eb08f -->
<connection from="85d0a-0" to="1139f-0"/>
<connection from="85d0a-0" to="1139f-0-re"/>
<connection from="85d0a-0-re" to="1139f-0"/>
<connection from="85d0a-0-re" to="1139f-0-re"/>
<connection from="64f36-0" to="1139f-0"/>
<connection from="64f36-0" to="1139f-0-re"/>
<connection from="64f36-0-re" to="1139f-0"/>
<connection from="64f36-0-re" to="1139f-0-re"/>
<connection from="1139f-0" to="85d0a-0"/>
<connection from="1139f-0" to="64f36-0"/>
<connection from="1139f-0" to="85d0a-0-re"/>
<connection from="1139f-0" to="64f36-0-re"/>
<connection from="1139f-0-re" to="85d0a-0"/>
<connection from="1139f-0-re" to="64f36-0"/>
<connection from="1139f-0-re" to="85d0a-0-re"/>
<connection from="1139f-0-re" to="64f36-0-re"/>
<!-- Point f74b1 759e25c5-eba4-4651-a3bf-b168e47f74b1 -->
<connection from="596bb-0" to="1139f-0"/>
<connection from="596bb-0" to="1139f-0-re"/>
<connection from="596bb-0-re" to="1139f-0"/>
<connection from="596bb-0-re" to="1139f-0-re"/>
<connection from="aa890-0" to="1139f-0"/>
<connection from="aa890-0" to="1139f-0-re"/>
<connection from="aa890-0-re" to="1139f-0"/>
<connection from="aa890-0-re" to="1139f-0-re"/>
<connection from="1139f-0" to="596bb-0"/>
<connection from="1139f-0" to="aa890-0"/>
<connection from="1139f-0" to="596bb-0-re"/>
<connection from="1139f-0" to="aa890-0-re"/>
<connection from="1139f-0-re" to="596bb-0"/>
<connection from="1139f-0-re" to="aa890-0"/>
<connection from="1139f-0-re" to="596bb-0-re"/>
<connection from="1139f-0-re" to="aa890-0-re"/>
<!-- Point 00718 c21e789f-e1a7-4414-af42-ede615100718 -->
<connection from="4555f-0" to="aa890-0"/>
<connection from="4555f-0" to="aa890-0-re"/>
<connection from="4555f-0-re" to="aa890-0"/>
<connection from="4555f-0-re" to="aa890-0-re"/>
<connection from="9a896-0" to="aa890-0"/>
<connection from="9a896-0" to="aa890-0-re"/>
<connection from="9a896-0-re" to="aa890-0"/>
<connection from="9a896-0-re" to="aa890-0-re"/>
<connection from="aa890-0" to="4555f-0"/>
<connection from="aa890-0" to="9a896-0"/>
<connection from="aa890-0" to="4555f-0-re"/>
<connection from="aa890-0" to="9a896-0-re"/>
<connection from="aa890-0-re" to="4555f-0"/>
<connection from="aa890-0-re" to="9a896-0"/>
<connection from="aa890-0-re" to="4555f-0-re"/>
<connection from="aa890-0-re" to="9a896-0-re"/>
<!-- Point be3c7 ff9e7214-16b5-4751-a69a-9b7baf2be3c7 -->
<connection from="671b8-0" to="cfbd6-0"/>
<connection from="671b8-0" to="cfbd6-0-re"/>
<connection from="671b8-0-re" to="cfbd6-0"/>
<connection from="671b8-0-re" to="cfbd6-0-re"/>
<connection from="f25e4-0" to="cfbd6-0"/>
<connection from="f25e4-0" to="cfbd6-0-re"/>
<connection from="f25e4-0-re" to="cfbd6-0"/>
<connection from="f25e4-0-re" to="cfbd6-0-re"/>
<connection from="cfbd6-0" to="671b8-0"/>
<connection from="cfbd6-0" to="f25e4-0"/>
<connection from="cfbd6-0" to="671b8-0-re"/>
<connection from="cfbd6-0" to="f25e4-0-re"/>
<connection from="cfbd6-0-re" to="671b8-0"/>
<connection from="cfbd6-0-re" to="f25e4-0"/>
<connection from="cfbd6-0-re" to="671b8-0-re"/>
<connection from="cfbd6-0-re" to="f25e4-0-re"/>
<!-- Point 5f129 4d2ce065-6629-4897-abc0-cd660445f129 -->
<connection from="85f57-0" to="cfbd6-0"/>
<connection from="85f57-0" to="cfbd6-0-re"/>
<connection from="85f57-0-re" to="cfbd6-0"/>
<connection from="85f57-0-re" to="cfbd6-0-re"/>
<connection from="7f7b9-0" to="cfbd6-0"/>
<connection from="7f7b9-0" to="cfbd6-0-re"/>
<connection from="7f7b9-0-re" to="cfbd6-0"/>
<connection from="7f7b9-0-re" to="cfbd6-0-re"/>
<connection from="cfbd6-0" to="85f57-0"/>
<connection from="cfbd6-0" to="7f7b9-0"/>
<connection from="cfbd6-0" to="85f57-0-re"/>
<connection from="cfbd6-0" to="7f7b9-0-re"/>
<connection from="cfbd6-0-re" to="85f57-0"/>
<connection from="cfbd6-0-re" to="7f7b9-0"/>
<connection from="cfbd6-0-re" to="85f57-0-re"/>
<connection from="cfbd6-0-re" to="7f7b9-0-re"/>
<!-- Point abeb0 6ea8abe5-3162-400b-ae3d-88b0f9eabeb0 -->
<connection from="49815-0" to="47e6b-0"/>
<connection from="49815-0" to="47e6b-0-re"/>
<connection from="49815-0-re" to="47e6b-0"/>
<connection from="49815-0-re" to="47e6b-0-re"/>
<connection from="8b6f5-0" to="47e6b-0"/>
<connection from="8b6f5-0" to="47e6b-0-re"/>
<connection from="8b6f5-0-re" to="47e6b-0"/>
<connection from="8b6f5-0-re" to="47e6b-0-re"/>
<connection from="47e6b-0" to="49815-0"/>
<connection from="47e6b-0" to="8b6f5-0"/>
<connection from="47e6b-0" to="49815-0-re"/>
<connection from="47e6b-0" to="8b6f5-0-re"/>
<connection from="47e6b-0-re" to="49815-0"/>
<connection from="47e6b-0-re" to="8b6f5-0"/>
<connection from="47e6b-0-re" to="49815-0-re"/>
<connection from="47e6b-0-re" to="8b6f5-0-re"/>
<!-- Point c1761 fd1da796-3638-45a2-a01f-68549dac1761 -->
<connection from="49815-0" to="736c8-0"/>
<connection from="49815-0" to="736c8-0-re"/>
<connection from="49815-0-re" to="736c8-0"/>
<connection from="49815-0-re" to="736c8-0-re"/>
<connection from="8b506-0" to="736c8-0"/>
<connection from="8b506-0" to="736c8-0-re"/>
<connection from="8b506-0-re" to="736c8-0"/>
<connection from="8b506-0-re" to="736c8-0-re"/>