<edges>
<!-- Track 2c2d802d-ffc8-45e1-a6c4-ee3d14da5979 -->
<edge id="a5979-0" from="01890" to="c96e0" shape="-2502198.12597,3467432.6135300007 -2502326.87985,3467457.56728 -2502538.0035300003,3467500.4087799992" priority="-1" numLanes="1" speed="110.0" allow="rail rail_electric" spreadType="center" />
<edge id="a5979-0-re" from="c96e0" to="01890" shape="-2502538.0035300003,3467500.4087799992 -2502326.87985,3467457.56728 -2502198.12597,3467432.6135300007" priority="-1" numLanes="1" speed="110.0" allow="rail rail_electric" spreadType="center" />
<!-- Track 6a6cfdb8-0f32-4281-b1c8-32602d03ded4 -->
<edge id="3ded4-0" from="01890" to="cf65b" shape="-2502198.12597,3467432.6135300007 -2502011.2665299997,3467395.2331499998" priority="-1" numLanes="1" speed="110.0" allow="rail rail_electric" spreadType="center" />
<edge id="3ded4-0-re" from="cf65b" to="01890" shape="-2502011.2665299997,3467395.2331499998 -2502198.12597,3467432.6135300007" priority="-1" numLanes="1" speed="110.0" allow="rail rail_electric" spreadType="center" />
<!-- Track 73341b3a-5e74-45ca-962c-475f3320b640 -->
<edge id="0b640-0" from="01890" to="b54fe" shape="-2502198.12597,3467432.6135300007 -2501986.54402,3467407.1456000004 -2501941.3945899997,3467406.669229999 -2501900.14021,3467408.084829999 -2501830.26282,3467412.3299899995 -2501757.78116,3467419.529619999 -2501699.91196,3467418.6983400006 -2501637.2375,3467415.15701 -2501580.2459899997,3467407.526350001 -2501328.4789,3467357.3175099995" priority="-1" numLanes="1" speed="110.0" allow="rail rail_electric" spreadType="center" />
<edge id="0b640-0-re" from="b54fe" to="01890" shape="-2501328.4789,3467357.3175099995 -2501580.2459899997,3467407.526350001 -2501637.2375,3467415.15701 -2501699.91196,3467418.6983400006 -2501757.78116,3467419.529619999 -2501830.26282,3467412.3299899995 -2501900.14021,3467408.084829999 -2501941.3945899997,3467406.669229999 -2501986.54402,3467407.1456000004 -2502198.12597,3467432.6135300007" priority="-1" numLanes="1" speed="110.0" allow="rail rail_electric" spreadType="center" />
<!-- Track f305f69b-9ae2-4edc-8df3-41048520907c -->
<edge id="0907c-0" from="cf65b" to="d2fb0" shape="-2502011.2665299997,3467395.2331499998 -2501902.1878899997,3467380.7301499993 -2501866.15293,3467378.21363 -2501673.07656,3467367.35386 -2501592.4169300003,3467359.1409399994 -2501551.4473,3467353.0741799995 -2501505.25312,3467345.7809800003 -2501206.74259,3467286.4816500004" priority="-1" numLanes="1" speed="110.0" allow="rail rail_electric" spreadType="center" />
<edge id="0907c-0-re" from="d2fb0" to="cf65b" shape="-2501206.74259,3467286.4816500004 -2501505.25312,3467345.7809800003 -2501551.4473,3467353.0741799995 -2501592.4169300003,3467359.1409399994 -2501673.07656,3467367.35386 -2501866.15293,3467378.21363 -2501902.1878899997,3467380.7301499993 -2502011.2665299997,3467395.2331499998" priority="-1" numLanes="1" speed="110.0" allow="rail rail_electric" spreadType="center" />
<!-- Track 5191fa31-e798-46a0-aa53-d9b5a28c52b6 -->
<edge id="c52b6-0" from="cf65b" to="ad18d" shape="-2502011.2665299997,3467395.2331499998 -2501807.9043300003,3467349.8108099997 -2501754.26764,3467336.96999" priority="-1" numLanes="1" speed="110.0" allow="rail rail_electric" spreadType="center" />
<edge id="c52b6-0-re" from="ad18d" to="cf65b" shape="-2501754.26764,3467336.96999 -2501807.9043300003,3467349.8108099997 -2502011.2665299997,3467395.2331499998" priority="-1" numLanes="1" speed="110.0" allow="rail rail_electric" spreadType="center" />
<!-- Track 5103bb80-854c-4cf0-8201-f7124c38dcf7 -->
<edge id="8dcf7-0" from="d2fb0" to="070e4" shape="-2501206.74259,3467286.4816500004 -2501015.8400600003,3467247.873880001" priority="-1" numLanes="1" speed="110.0" allow="rail rail_electric" spreadType="center" />
<edge id="8dcf7-0-re" from="070e4" to="d2fb0" shape="-2501015.8400600003,3467247.873880001 -2501206.74259,3467286.4816500004" priority="-1" numLanes="1" speed="110.0" allow="rail rail_electric" spreadType="center" />
<!-- Track 03c107ac-a2ee-4064-8228-6240bf681bfa -->
<edge id="81bfa-0" from="d2fb0" to="5aed8" shape="-2501206.74259,3467286.4816500004 -2501292.26427,3467298.73656 -2501351.82864,3467306.9248900004 -2501777.8962399997,3467364.0153800007" priority="-1" numLanes="1" speed="110.0" allow="rail rail_electric" spreadType="center" />
<edge id="81bfa-0-re" from="5aed8" to="d2fb0" shape="-2501777.8962399997,3467364.0153800007 -2501351.82864,3467306.9248900004 -2501292.26427,3467298.73656 -2501206.74259,3467286.4816500004" priority="-1" numLanes="1" speed="110.0" allow="rail rail_electric" spreadType="center" />
<!-- Track 83ab6291-5e09-499b-97dd-09f086d07e4e -->
<edge id="07e4e-0" from="070e4" to="9a35f" shape="-2501015.8400600003,3467247.873880001 -2500319.68061,3467109.52558" priority="-1" numLanes="1" speed="110.0" allow="rail rail_electric" spreadType="center" />
<edge id="07e4e-0-re" from="9a35f" to="070e4" shape="-2500319.68061,3467109.52558 -2501015.8400600003,3467247.873880001" priority="-1" numLanes="1" speed="110.0" allow="rail rail_electric" spreadType="center" />
<!-- Track 08bf28ca-2f61-44f6-a5be-548e340838b9 -->
<edge id="838b9-0" from="070e4" to="aa875" shape="-2501015.8400600003,3467247.873880001 -2501115.08361,3467272.0554600004 -2501236.73985,3467305.6705399994 -2501274.0125700003,3467312.661529999 -2501684.7521200003,3467394.7215800006" priority="-1" numLanes="1" speed="110.0" allow="rail rail_electric" spreadType="center" />
<edge id="838b9-0-re" from="aa875" to="070e4" shape="-2501684.7521200003,3467394.7215800006 -2501274.0125700003,3467312.661529999 -2501236.73985,3467305.6705399994 -2501115.08361,3467272.0554600004 -2501015.8400600003,3467247.873880001" priority="-1" numLanes="1" speed="110.0" allow="rail rail_electric" spreadType="center" />
<!-- Track 126d3819-7651-4b86-a24f-d745bb453cb4 -->
<edge id="53cb4-0" from="53cf5" to="63639" shape="-2498540.54764,3466763.4935800005 -2498402.6613499997,3466732.73161 -2498329.96588,3466713.1247499995 -2498268.72423,3466698.8420899995" priority="-1" numLanes="1" speed="110.0" allow="rail rail_electric" spreadType="center" />
<edge id="53cb4-0-re" from="63639" to="53cf5" shape="-2498268.72423,3466698.8420899995 -2498329.96588,3466713.1247499995 -2498402.6613499997,3466732.73161 -2498540.54764,3466763.4935800005" priority="-1" numLanes="1" speed="110.0" allow="rail rail_electric" spreadType="center" />
<!-- Track 47b5affb-f67c-4e54-a12f-a55829431e86 -->
<edge id="31e86-0" from="53cf5" to="4ae60" shape="-2498540.54764,3466763.4935800005 -2498576.53387,3466770.6508099996" priority="-1" numLanes="1" speed="110.0" allow="rail rail_electric" spreadType="center" />
<edge id="31e86-0-re" from="4ae60" to="53cf5" shape="-2498576.53387,3466770.6508099996 -2498540.54764,3466763.4935800005" priority="-1" numLanes="1" speed="110.0" allow="rail rail_electric" spreadType="center" />
<!-- Track ea997196-3c33-453b-a1a9-8a87cfe6f557 -->
<edge id="6f557-0" from="53cf5" to="740f8" shape="-2498540.54764,3466763.4935800005 -2498252.68266,3466726.1891099997 -2498197.48094,3466721.89085 -2498139.02323,3466720.706219999 -2498060.3311900003,3466723.9792299997 -2497982.49469,3466733.01819 -2497909.9296500003,3466748.15646 -2497850.34973,3466766.0617699996 -2497809.3890500003,3466783.1006199997 -2497777.6173099997,3466798.02104 -2497757.65106,3466807.11544 -2497727.25933,3466826.2988600004 -2497702.75416,3466844.8849400003 -2497672.7243999997,3466868.5284599997 -2497638.29837,3466909.5678899996 -2497613.25141,3466948.8926599994 -2497593.60754,3466989.2724399995 -2497575.08128,3467046.9352100007 -2497569.9086800003,3467066.7781099994 -2497563.73441,3467105.96246 -2497557.50134,3467146.900459999 -2497556.05418,3467193.9233500008 -2497556.2335200002,3467236.8809600007 -2497560.39695,3467302.4759100005 -2497575.63252,3467387.626049999 -2497591.92547,3467452.675519999 -2497624.94031,3467543.71119 -2497663.94741,3467628.118450001 -2497712.75335,3467713.11197 -2497760.3523,3467784.1246099994 -2497825.04466,3467867.2288099993 -2497882.94791,3467933.29803 -2497954.1841700003,3468006.7475000005 -2498048.39064,3468092.79583 -2498147.8514,3468178.25674 -2498263.92411,3468270.6784099992 -2498342.1996999998,3468330.46768 -2498420.80864,3468386.5413499996 -2498652.22039,3468554.6521700006 -2499030.181,3468824.3028100003 -2499492.79879,3469158.6472699996 -2499607.48544,3469240.3513200004 -2500024.2620200003,3469539.477430001 -2500184.64418,3469655.1375200003 -2500305.05141,3469739.8357100002 -2500418.8024899997,3469824.2594099995 -2500574.48892,3469936.35939 -2500644.86252,3469986.7818100005 -2500688.49554,3470018.4375" priority="-1" numLanes="1" speed="110.0" allow="rail rail_electric" spreadType="center" />
<edge id="6f557-0-re" from="740f8" to="53cf5" shape="-2500688.49554,3470018.4375 -2500644.86252,3469986.7818100005 -2500574.48892,3469936.35939 -2500418.8024899997,3469824.2594099995 -2500305.05141,3469739.8357100002 -2500184.64418,3469655.1375200003 -2500024.2620200003,3469539.477430001 -2499607.48544,3469240.3513200004 -2499492.79879,3469158.6472699996 -2499030.181,3468824.3028100003 -2498652.22039,3468554.6521700006 -2498420.80864,3468386.5413499996 -2498342.1996999998,3468330.46768 -2498263.92411,3468270.6784099992 -2498147.8514,3468178.25674 -2498048.39064,3468092.79583 -2497954.1841700003,3468006.7475000005 -2497882.94791,3467933.29803 -2497825.04466,3467867.2288099993 -2497760.3523,3467784.1246099994 -2497712.75335,3467713.11197 -2497663.94741,3467628.118450001 -2497624.94031,3467543.71119 -2497591.92547,3467452.675519999 -2497575.63252,3467387.626049999 -2497560.39695,3467302.4759100005 -2497556.2335200002,3467236.8809600007 -2497556.05418,3467193.9233500008 -2497557.50134,3467146.900459999 -2497563.73441,3467105.96246 -2497569.9086800003,3467066.7781099994 -2497575.08128,3467046.9352100007 -2497593.60754,3466989.2724399995 -2497613.25141,3466948.8926599994 -2497638.29837,3466909.5678899996 -2497672.7243999997,3466868.5284599997 -2497702.75416,3466844.8849400003 -2497727.25933,3466826.2988600004 -2497757.65106,3466807.11544 -2497777.6173099997,3466798.02104 -2497809.3890500003,3466783.1006199997 -2497850.34973,3466766.0617699996 -2497909.9296500003,3466748.15646 -2497982.49469,3466733.01819 -2498060.3311900003,3466723.9792299997 -2498139.02323,3466720.706219999 -2498197.48094,3466721.89085 -2498252.68266,3466726.1891099997 -2498540.54764,3466763.4935800005" priority="-1" numLanes="1" speed="110.0" allow="rail rail_electric" spreadType="center" />
<!-- Track 89f12c07-1147-48b0-ae05-da9a837debda -->
<edge id="debda-0" from="63639" to="c3cd5" shape="-2498268.72423,3466698.8420899995 -2498747.89618,3466795.468219999" priority="-1" numLanes="1" speed="110.0" allow="rail rail_electric" spreadType="center" />
<edge id="debda-0-re" from="c3cd5" to="63639" shape="-2498747.89618,3466795.468219999 -2498268.72423,3466698.8420899995" priority="-1" numLanes="1" speed="110.0" allow="rail rail_electric" spreadType="center" />
<!-- Track 29edcc96-4087-421b-8b79-4dfc0a68b99b -->
<edge id="8b99b-0" from="63639" to="27e21" shape="-2498268.72423,3466698.8420899995 -2497683.84035,3466580.68341 -2497616.70742,3466562.6213700008 -2497555.57539,3466541.44915 -2497493.5793000003,3466516.0916099995 -2497432.28336,3466486.141829999 -2497376.3927100003,3466452.90364 -2497326.80472,3466420.47088 -2497278.2940499997,3466378.9560199995 -2497243.99343,3466345.50536 -2497199.77704,3466293.87476 -2497166.09967,3466237.4059999995 -2497145.7740700003,3466189.32962 -2497129.6652800003,3466136.54428 -2497120.9402799997,3466053.3049500007 -2497107.6139,3465873.5539800003 -2497105.27989,3465831.8552 -2497092.47124,3465670.9046800006 -2497083.5450299997,3465548.59633" priority="-1" numLanes="1" speed="110.0" allow="rail rail_electric" spreadType="center" />
<edge id="8b99b-0-re" from="27e21" to="63639" shape="-2497083.5450299997,3465548.59633 -2497092.47124,3465670.9046800006 -2497105.27989,3465831.8552 -2497107.6139,3465873.5539800003 -2497120.9402799997,3466053.3049500007 -2497129.6652800003,3466136.54428 -2497145.7740700003,3466189.32962 -2497166.09967,3466237.4059999995 -2497199.77704,3466293.87476 -2497243.99343,3466345.50536 -2497278.2940499997,3466378.9560199995 -2497326.80472,3466420.47088 -2497376.3927100003,3466452.90364 -2497432.28336,3466486.141829999 -2497493.5793000003,3466516.0916099995 -2497555.57539,3466541.44915 -2497616.70742,3466562.6213700008 -2497683.84035,3466580.68341 -2498268.72423,3466698.8420899995" priority="-1" numLanes="1" speed="110.0" allow="rail rail_electric" spreadType="center" />
<!-- Track 5cb4a707-510f-4e0f-9b8e-b5d18a23709a -->
<edge id="3709a-0" from="9c46d" to="1158d" shape="-2497040.4622299997,3464885.77458 -2497015.99143,3464028.421530001 -2497013.97126,3463976.808390001 -2497009.42261,3463938.33306 -2497000.0510400003,3463878.5135699995 -2496980.11027,3463796.085000001 -2496942.81543,3463687.8461499996 -2496891.7515700003,3463554.4648199994 -2496594.61733,3462763.889389999 -2496506.79474,3462530.2199099995 -2496450.0170400003,3462387.64068 -2496394.26611,3462244.6163500007 -2496373.25611,3462190.691919999 -2496357.6298599998,3462153.2097500004 -2496304.40159,3462020.9167100005" priority="-1" numLanes="1" speed="110.0" allow="rail rail_electric" spreadType="center" />
<edge id="3709a-0-re" from="1158d" to="9c46d" shape="-2496304.40159,3462020.9167100005 -2496357.6298599998,3462153.2097500004 -2496373.25611,3462190.691919999 -2496394.26611,3462244.6163500007 -2496450.0170400003,3462387.64068 -2496506.79474,3462530.2199099995 -2496594.61733,3462763.889389999 -2496891.7515700003,3463554.4648199994 -2496942.81543,3463687.8461499996 -2496980.11027,3463796.085000001 -2497000.0510400003,3463878.5135699995 -2497009.42261,3463938.33306 -2497013.97126,3463976.808390001 -2497015.99143,3464028.421530001 -2497040.4622299997,3464885.77458" priority="-1" numLanes="1" speed="110.0" allow="rail rail_electric" spreadType="center" />
<!-- Track 06437e32-784f-4757-b9cb-3e7d0ca8ffc5 -->
<edge id="8ffc5-0" from="9c46d" to="f1d9f" shape="-2497040.4622299997,3464885.77458 -2497041.4403999997,3464952.8688200004" priority="-1" numLanes="1" speed="110.0" allow="rail rail_electric" spreadType="center" />
<edge id="8ffc5-0-re" from="f1d9f" to="9c46d" shape="-2497041.4403999997,3464952.8688200004 -2497040.4622299997,3464885.77458" priority="-1" numLanes="1" speed="110.0" allow="rail rail_electric" spreadType="center" />
<!-- Track 898b0676-15b9-49e4-9838-2453e423a6f7 -->
<edge id="3a6f7-0" from="9c46d" to="3b08d" shape="-2497040.4622299997,3464885.77458 -2497046.63124,3464821.1730000004 -2497048.08977,3464789.196489999" priority="-1" numLanes="1" speed="110.0" allow="rail rail_electric" spreadType="center" />
<edge id="3a6f7-0-re" from="3b08d" to="9c46d" shape="-2497048.08977,3464789.196489999 -2497046.63124,3464821.1730000004 -2497040.4622299997,3464885.77458" priority="-1" numLanes="1" speed="110.0" allow="rail rail_electric" spreadType="center" />
<!-- Track 4c0afc2f-dbcb-4247-ba71-a00db2ff095a -->
<edge id="f095a-0" from="4358f" to="1285c" shape="-2496162.36355,3464067.9474400003 -2496131.91341,3464011.2853200007" priority="-1" numLanes="1" speed="110.0" allow="rail rail_electric" spreadType="center" />
<edge id="f095a-0-re" from="1285c" to="4358f" shape="-2496131.91341,3464011.2853200007 -2496162.36355,3464067.9474400003" priority="-1" numLanes="1" speed="110.0" allow="rail rail_electric" spreadType="center" />
<!-- Track 885b01d4-80c5-4fd0-ac44-ad85feff86e2 -->
<edge id="f86e2-0" from="4358f" to="80483" shape="-2496162.36355,3464067.9474400003 -2496089.0351799997,3463971.1033299994" priority="-1" numLanes="1" speed="110.0" allow="rail rail_electric" spreadType="center" />
<edge id="f86e2-0-re" from="80483" to="4358f" shape="-2496089.0351799997,3463971.1033299994 -2496162.36355,3464067.9474400003" priority="-1" numLanes="1" speed="110.0" allow="rail rail_electric" spreadType="center" />
<!-- Track a7ed7e89-f688-498e-919e-befdd33e276f -->
<edge id="e276f-0" from="4358f" to="29e2d" shape="-2496162.36355,3464067.9474400003 -2496199.62101,3464133.6441600006 -2496271.1276000002,3464260.7358800005" priority="-1" numLanes="1" speed="110.0" allow="rail rail_electric" spreadType="center" />
<edge id="e276f-0-re" from="29e2d" to="4358f" shape="-2496271.1276000002,3464260.7358800005 -2496199.62101,3464133.6441600006 -2496162.36355,3464067.9474400003" priority="-1" numLanes="1" speed="110.0" allow="rail rail_electric" spreadType="center" />
<!-- Track beedfa82-2824-4c13-a581-ab4482eab8ca -->
<edge id="ab8ca-0" from="1285c" to="2cab4" shape="-2496131.91341,3464011.2853200007 -2495593.77887,3463048.5656199995" priority="-1" numLanes="1" speed="110.0" allow="rail rail_electric" spreadType="center" />
<edge id="ab8ca-0-re" from="2cab4" to="1285c" shape="-2495593.77887,3463048.5656199995 -2496131.91341,3464011.2853200007" priority="-1" numLanes="1" speed="110.0" allow="rail rail_electric" spreadType="center" />
<!-- Track 6aa0e698-b5dc-44b7-b0a0-68147bd14ddd -->
<edge id="14ddd-0" from="1285c" to="d2d30" shape="-2496131.91341,3464011.2853200007 -2496096.6506000003,3463962.0940799993" priority="-1" numLanes="1" speed="110.0" allow="rail rail_electric" spreadType="center" />
<edge id="14ddd-0-re" from="d2d30" to="1285c" shape="-2496096.6506000003,3463962.0940799993 -2496131.91341,3464011.2853200007" priority="-1" numLanes="1" speed="110.0" allow="rail rail_electric" spreadType="center" />
<!-- Track 4165b033-a3ec-4b2c-b32c-324d5765cbd4 -->
<edge id="5cbd4-0" from="2cab4" to="7d119" shape="-2495593.77887,3463048.5656199995 -2495572.8213400003,3463024.2260299996" priority="-1" numLanes="1" speed="110.0" allow="rail rail_electric" spreadType="center" />
<edge id="5cbd4-0-re" from="7d119" to="2cab4" shape="-2495572.8213400003,3463024.2260299996 -2495593.77887,3463048.5656199995" priority="-1" numLanes="1" speed="110.0" allow="rail rail_electric" spreadType="center" />
<!-- Track a3688219-1800-42a2-b613-2dd4cf3ce07f -->
<edge id="ce07f-0" from="2cab4" to="1272d" shape="-2495593.77887,3463048.5656199995 -2495643.0004000003,3463115.443050001" priority="-1" numLanes="1" speed="110.0" allow="rail rail_electric" spreadType="center" />
<edge id="ce07f-0-re" from="1272d" to="2cab4" shape="-2495643.0004000003,3463115.443050001 -2495593.77887,3463048.5656199995" priority="-1" numLanes="1" speed="110.0" allow="rail rail_electric" spreadType="center" />
<!-- Track e65c28dd-ab51-4ece-a14e-e3db90049546 -->
<edge id="49546-0" from="7d119" to="a0070" shape="-2495572.8213400003,3463024.2260299996 -2495551.4765999997,3462986.0530600008" priority="-1" numLanes="1" speed="110.0" allow="rail rail_electric" spreadType="center" />
<edge id="49546-0-re" from="a0070" to="7d119" shape="-2495551.4765999997,3462986.0530600008 -2495572.8213400003,3463024.2260299996" priority="-1" numLanes="1" speed="110.0" allow="rail rail_electric" spreadType="center" />
<!-- Track 0e3b12c3-01f3-4d07-a869-991da11bec8f -->
<edge id="bec8f-0" from="7d119" to="d2d30" shape="-2495572.8213400003,3463024.2260299996 -2496060.75423,3463900.6843599994 -2496096.6506000003,3463962.0940799993" priority="-1" numLanes="1" speed="110.0" allow="rail rail_electric" spreadType="center" />
<edge id="bec8f-0-re" from="d2d30" to="7d119" shape="-2496096.6506000003,3463962.0940799993 -2496060.75423,3463900.6843599994 -2495572.8213400003,3463024.2260299996" priority="-1" numLanes="1" speed="110.0" allow="rail rail_electric" spreadType="center" />
<!-- Track e4e4f69c-56b7-4d8c-aaf6-dd5a4c937606 -->
<edge id="37606-0" from="a0070" to="b62b6" shape="-2495551.4765999997,3462986.0530600008 -2495336.3058,3462600.37651 -2495318.0454,3462566.56484" priority="-1" numLanes="1" speed="110.0" allow="rail rail_electric" spreadType="center" />
<edge id="37606-0-re" from="b62b6" to="a0070" shape="-2495318.0454,3462566.56484 -2495336.3058,3462600.37651 -2495551.4765999997,3462986.0530600008" priority="-1" numLanes="1" speed="110.0" allow="rail rail_electric" spreadType="center" />
<!-- Track 1fb2e27b-5837-4d6c-84ec-b67161088f4b -->
<edge id="88f4b-0" from="a0070" to="ef470" shape="-2495551.4765999997,3462986.0530600008 -2495566.34365,3463036.3671899997" priority="-1" numLanes="1" speed="110.0" allow="rail rail_electric" spreadType="center" />
<edge id="88f4b-0-re" from="ef470" to="a0070" shape="-2495566.34365,3463036.3671899997 -2495551.4765999997,3462986.0530600008" priority="-1" numLanes="1" speed="110.0" allow="rail rail_electric" spreadType="center" />
<!-- Track a6379706-580b-44a6-9d20-c3a691d81dc8 -->
<edge id="81dc8-0" from="b62b6" to="933ac" shape="-2495318.0454,3462566.56484 -2495275.3629099997,3462471.4147699997" priority="-1" numLanes="1" speed="110.0" allow="rail rail_electric" spreadType="center" />
<edge id="81dc8-0-re" from="933ac" to="b62b6" shape="-2495275.3629099997,3462471.4147699997 -2495318.0454,3462566.56484" priority="-1" numLanes="1" speed="110.0" allow="rail rail_electric" spreadType="center" />
<!-- Track a808cda0-e0a7-45ba-8e30-e4f7ef0e1497 -->
<edge id="e1497-0" from="b62b6" to="e1530" shape="-2495318.0454,3462566.56484 -2495261.22944,3462466.0143" priority="-1" numLanes="1" speed="110.0" allow="rail rail_electric" spreadType="center" />
<edge id="e1497-0-re" from="e1530" to="b62b6" shape="-2495261.22944,3462466.0143 -2495318.0454,3462566.56484" priority="-1" numLanes="1" speed="110.0" allow="rail rail_electric" spreadType="center" />
<!-- Track 3e2764f4-825c-4d11-9c8d-f813343ac2bf -->
<edge id="ac2bf-0" from="933ac" to="ca145" shape="-2495275.3629099997,3462471.4147699997 -2495247.65842,3462423.4483199995 -2495179.00108,3462297.0050300006 -2494949.94752,3461888.1476799995 -2494784.43721,3461589.2829" priority="-1" numLanes="1" speed="110.0" allow="rail rail_electric" spreadType="center" />
<edge id="ac2bf-0-re" from="ca145" to="933ac" shape="-2494784.43721,3461589.2829 -2494949.94752,3461888.1476799995 -2495179.00108,3462297.0050300006 -2495247.65842,3462423.4483199995 -2495275.3629099997,3462471.4147699997" priority="-1" numLanes="1" speed="110.0" allow="rail rail_electric" spreadType="center" />
<!-- Track 16fdc628-4835-4546-a554-12540657cda5 -->
<edge id="7cda5-0" from="933ac" to="ecb8f" shape="-2495275.3629099997,3462471.4147699997 -2495302.56032,3462519.2630899996 -2495343.4118600003,3462577.7074100003" priority="-1" numLanes="1" speed="110.0" allow="rail rail_electric" spreadType="center" />
<edge id="7cda5-0-re" from="ecb8f" to="933ac" shape="-2495343.4118600003,3462577.7074100003 -2495302.56032,3462519.2630899996 -2495275.3629099997,3462471.4147699997" priority="-1" numLanes="1" speed="110.0" allow="rail rail_electric" spreadType="center" />
<!-- Track f3140af0-b7ee-4bec-abb4-1f0148bd1b8c -->
<edge id="d1b8c-0" from="0ef35" to="2a672" shape="-2503676.4045200003,3464880.5900599994 -2503635.0706700003,3465052.0235200003 -2503607.12248,3465120.9571400005 -2503579.73271,3465171.946249999 -2503552.3815200003,3465210.82446 -2503519.99755,3465253.85527 -2503484.10566,3465285.53331 -2503441.80859,3465312.84437 -2503393.6775,3465336.92815 -2503344.40879,3465354.9221400004 -2503290.9331799997,3465368.62108 -2503225.22822,3465381.620580001 -2503161.70919,3465388.0903699994 -2503114.7375499997,3465390.035460001 -2503064.22402,3465388.0879100002 -2503002.5785600003,3465382.1909800004 -2502939.97027,3465373.77052 -2502696.49747,3465323.1018000003" priority="-1" numLanes="1" speed="110.0" allow="rail rail_electric" spreadType="center" />
<edge id="d1b8c-0-re" from="2a672" to="0ef35" shape="-2502696.49747,3465323.1018000003 -2502939.97027,3465373.77052 -2503002.5785600003,3465382.1909800004 -2503064.22402,3465388.0879100002 -2503114.7375499997,3465390.035460001 -2503161.70919,3465388.0903699994 -2503225.22822,3465381.620580001 -2503290.9331799997,3465368.62108 -2503344.40879,3465354.9221400004 -2503393.6775,3465336.92815 -2503441.80859,3465312.84437 -2503484.10566,3465285.53331 -2503519.99755,3465253.85527 -2503552.3815200003,3465210.82446 -2503579.73271,3465171.946249999 -2503607.12248,3465120.9571400005 -2503635.0706700003,3465052.0235200003 -2503676.4045200003,3464880.5900599994" priority="-1" numLanes="1" speed="110.0" allow="rail rail_electric" spreadType="center" />
<!-- Track be449324-f0de-4647-bffa-83e4109f2168 -->
<edge id="f2168-0" from="0a1c8" to="b6d4f" shape="-2504315.19839,3467381.2208900005 -2504196.30494,3467499.842049999 -2504114.68729,3467550.73412 -2504048.82027,3467584.3089000005 -2503977.56959,3467611.1882700007 -2503823.6388,3467651.6997599993 -2503736.82881,3467662.6912900005 -2503642.80157,3467670.1144399997 -2503560.23568,3467672.0382000003 -2503477.22757,3467666.7933900002 -2503415.06655,3467661.3092 -2503350.53566,3467653.1525299996 -2503249.2369,3467635.2567999996 -2502769.90934,3467539.5478499997" priority="-1" numLanes="1" speed="110.0" allow="rail rail_electric" spreadType="center" />
<edge id="f2168-0-re" from="b6d4f" to="0a1c8" shape="-2502769.90934,3467539.5478499997 -2503249.2369,3467635.2567999996 -2503350.53566,3467653.1525299996 -2503415.06655,3467661.3092 -2503477.22757,3467666.7933900002 -2503560.23568,3467672.0382000003 -2503642.80157,3467670.1144399997 -2503736.82881,3467662.6912900005 -2503823.6388,3467651.6997599993 -2503977.56959,3467611.1882700007 -2504048.82027,3467584.3089000005 -2504114.68729,3467550.73412 -2504196.30494,3467499.842049999 -2504315.19839,3467381.2208900005" priority="-1" numLanes="1" speed="110.0" allow="rail rail_electric" spreadType="center" />
<!-- Track 50cb304b-b2eb-474d-9e37-7a0ca87f9e58 -->
<edge id="f9e58-0" from="0a1c8" to="28d30" shape="-2504315.19839,3467381.2208900005 -2504239.28466,3467447.2822399996 -2504180.33148,3467493.5557199996 -2504100.13129,3467541.94929 -2504035.99351,3467573.0474900007 -2503962.7979800003,3467599.45806 -2503869.35323,3467622.69878 -2503813.91494,3467635.32814 -2503728.31624,3467647.142449999 -2503638.13174,3467653.1389799993 -2503560.65835,3467654.410940001 -2503473.71402,3467650.9798600003 -2503416.5269299997,3467645.70256 -2503362.1894300003,3467639.0051000006 -2503260.61771,3467621.4599900004 -2502347.22414,3467436.5157200005 -2502285.9478599997,3467423.9185300004 -2502080.05701,3467379.258509999 -2501552.0682800002,3467258.6395999994 -2501238.06836,3467195.82739" priority="-1" numLanes="1" speed="110.0" allow="rail rail_electric" spreadType="center" />
<edge id="f9e58-0-re" from="28d30" to="0a1c8" shape="-2501238.06836,3467195.82739 -2501552.0682800002,3467258.6395999994 -2502080.05701,3467379.258509999 -2502285.9478599997,3467423.9185300004 -2502347.22414,3467436.5157200005 -2503260.61771,3467621.4599900004 -2503362.1894300003,3467639.0051000006 -2503416.5269299997,3467645.70256 -2503473.71402,3467650.9798600003 -2503560.65835,3467654.410940001 -2503638.13174,3467653.1389799993 -2503728.31624,3467647.142449999 -2503813.91494,3467635.32814 -2503869.35323,3467622.69878 -2503962.7979800003,3467599.45806 -2504035.99351,3467573.0474900007 -2504100.13129,3467541.94929 -2504180.33148,3467493.5557199996 -2504239.28466,3467447.2822399996 -2504315.19839,3467381.2208900005" priority="-1" numLanes="1" speed="110.0" allow="rail rail_electric" spreadType="center" />
<!-- Track bbdcc21d-bb7f-41a1-be70-edbf0517c41e -->
<edge id="7c41e-0" from="0a1c8" to="31604" shape="-2504315.19839,3467381.2208900005 -2504374.91192,3467310.9570700005" priority="-1" numLanes="1" speed="110.0" allow="rail rail_electric" spreadType="center" />
<edge id="7c41e-0-re" from="31604" to="0a1c8" shape="-2504374.91192,3467310.9570700005 -2504315.19839,3467381.2208900005" priority="-1" numLanes="1" speed="110.0" allow="rail rail_electric" spreadType="center" />
<!-- Track 7f294c58-fc95-4f17-935b-0764aab47ab2 -->
<edge id="47ab2-0" from="b6d4f" to="ab2c2" shape="-2502769.90934,3467539.5478499997 -2502697.76023,3467525.5081900004" priority="-1" numLanes="1" speed="110.0" allow="rail rail_electric" spreadType="center" />
<edge id="47ab2-0-re" from="ab2c2" to="b6d4f" shape="-2502697.76023,3467525.5081900004 -2502769.90934,3467539.5478499997" priority="-1" numLanes="1" speed="110.0" allow="rail rail_electric" spreadType="center" />
<!-- Track 2da736f0-575a-439d-b046-470a48742740 -->
<edge id="42740-0" from="b6d4f" to="7b23f" shape="-2502769.90934,3467539.5478499997 -2502871.4633400002,3467565.5168500002 -2502942.75788,3467580.7814099994" priority="-1" numLanes="1" speed="110.0" allow="rail rail_electric" spreadType="center" />
<edge id="42740-0-re" from="7b23f" to="b6d4f" shape="-2502942.75788,3467580.7814099994 -2502871.4633400002,3467565.5168500002 -2502769.90934,3467539.5478499997" priority="-1" numLanes="1" speed="110.0" allow="rail rail_electric" spreadType="center" />
<!-- Track bb06f808-4d0b-4b97-a6f5-a4755dadef40 -->
<edge id="def40-0" from="ab2c2" to="ad18d" shape="-2502697.76023,3467525.5081900004 -2502271.8737000003,3467440.74873 -2501991.25064,3467384.1340299994 -2501754.26764,3467336.96999" priority="-1" numLanes="1" speed="110.0" allow="rail rail_electric" spreadType="center" />
<edge id="def40-0-re" from="ad18d" to="ab2c2" shape="-2501754.26764,3467336.96999 -2501991.25064,3467384.1340299994 -2502271.8737000003,3467440.74873 -2502697.76023,3467525.5081900004" priority="-1" numLanes="1" speed="110.0" allow="rail rail_electric" spreadType="center" />
<!-- Track f9c471ce-fcfd-4b29-b2cc-8827bfb2ba41 -->
<edge id="2ba41-0" from="ab2c2" to="c96e0" shape="-2502697.76023,3467525.5081900004 -2502585.30262,3467508.6943699997 -2502538.0035300003,3467500.4087799992" priority="-1" numLanes="1" speed="110.0" allow="rail rail_electric" spreadType="center" />
<edge id="2ba41-0-re" from="c96e0" to="ab2c2" shape="-2502538.0035300003,3467500.4087799992 -2502585.30262,3467508.6943699997 -2502697.76023,3467525.5081900004" priority="-1" numLanes="1" speed="110.0" allow="rail rail_electric" spreadType="center" />
<!-- Track 11c1bcaf-2cdc-4743-b29d-d4e3518e2e26 -->