<connections>
<!-- Point 505c7 eda2fcd5-3deb-4626-91e2-2a6fe64505c7 -->
<connection from="09685-0" to="74212-0"/>
<connection from="09685-0" to="74212-0-re"/>
<connection from="09685-0-re" to="74212-0"/>
<connection from="09685-0-re" to="74212-0-re"/>
<connection from="45487-0" to="74212-0"/>
<connection from="45487-0" to="74212-0-re"/>
<connection from="45487-0-re" to="74212-0"/>
<connection from="45487-0-re" to="74212-0-re"/>
<connection from="74212-0" to="09685-0"/>
<connection from="74212-0" to="45487-0"/>
<connection from="74212-0" to="09685-0-re"/>
<connection from="74212-0" to="45487-0-re"/>
<connection from="74212-0-re" to="09685-0"/>
<connection from="74212-0-re" to="45487-0"/>
<connection from="74212-0-re" to="09685-0-re"/>
<connection from="74212-0-re" to="45487-0-re"/>
<!-- Point 1aaf4 5bde4783-2949-483c-9034-1c6dd391aaf4 -->
<connection from="76a56-0" to="45487-0"/>
<connection from="76a56-0" to="45487-0-re"/>
<connection from="76a56-0-re" to="45487-0"/>
<connection from="76a56-0-re" to="45487-0-re"/>
<connection from="344ea-0" to="45487-0"/>
<connection from="344ea-0" to="45487-0-re"/>
<connection from="344ea-0-re" to="45487-0"/>
<connection from="344ea-0-re" to="45487-0-re"/>
<connection from="45487-0" to="76a56-0"/>
<connection from="45487-0" to="344ea-0"/>
<connection from="45487-0" to="76a56-0-re"/>
<connection from="45487-0" to="344ea-0-re"/>
<connection from="45487-0-re" to="76a56-0"/>
<connection from="45487-0-re" to="344ea-0"/>
<connection from="45487-0-re" to="76a56-0-re"/>
<connection from="45487-0-re" to="344ea-0-re"/>
<!-- Point 1ce6d 77469fcd-b73c-4be9-b456-c679df51ce6d -->
<connection from="9efd3-0" to="ee842-0"/>
<connection from="9efd3-0" to="ee842-0-re"/>
<connection from="9efd3-0-re" to="ee842-0"/>
<connection from="9efd3-0-re" to="ee842-0-re"/>
<connection from="76a56-0" to="ee842-0"/>
<connection from="76a56-0" to="ee842-0-re"/>
<connection from="76a56-0-re" to="ee842-0"/>
<connection from="76a56-0-re" to="ee842-0-re"/>
<connection from="ee842-0" to="9efd3-0"/>
<connection from="ee842-0" to="76a56-0"/>
<connection from="ee842-0" to="9efd3-0-re"/>
<connection from="ee842-0" to="76a56-0-re"/>
<connection from="ee842-0-re" to="9efd3-0"/>
<connection from="ee842-0-re" to="76a56-0"/>
<connection from="ee842-0-re" to="9efd3-0-re"/>
<connection from="ee842-0-re" to="76a56-0-re"/>
<!-- Point 0c984 d392bed6-4650-4689-ad0e-c2693530c984 -->
<connection from="ee842-0" to="504bd-0"/>
<connection from="ee842-0" to="504bd-0-re"/>
<connection from="ee842-0-re" to="504bd-0"/>
<connection from="ee842-0-re" to="504bd-0-re"/>
<connection from="e5527-0" to="504bd-0"/>
<connection from="e5527-0" to="504bd-0-re"/>
<connection from="e5527-0-re" to="504bd-0"/>
<connection from="e5527-0-re" to="504bd-0-re"/>
<connection from="504bd-0" to="ee842-0"/>
<connection from="504bd-0" to="e5527-0"/>
<connection from="504bd-0" to="ee842-0-re"/>
<connection from="504bd-0" to="e5527-0-re"/>
<connection from="504bd-0-re" to="ee842-0"/>
<connection from="504bd-0-re" to="e5527-0"/>
<connection from="504bd-0-re" to="ee842-0-re"/>
<connection from="504bd-0-re" to="e5527-0-re"/>
<!-- Point a1e5c a4bcfb08-be44-47f5-bcbf-559050ca1e5c -->
<connection from="13c83-0" to="92c58-0"/>
<connection from="13c83-0" to="92c58-0-re"/>
<connection from="13c83-0-re" to="92c58-0"/>
<connection from="13c83-0-re" to="92c58-0-re"/>
<connection from="9922e-0" to="92c58-0"/>
<connection from="9922e-0" to="92c58-0-re"/>
<connection from="9922e-0-re" to="92c58-0"/>
<connection from="9922e-0-re" to="92c58-0-re"/>
<connection from="92c58-0" to="13c83-0"/>
<connection from="92c58-0" to="9922e-0"/>
<connection from="92c58-0" to="13c83-0-re"/>
<connection from="92c58-0" to="9922e-0-re"/>
<connection from="92c58-0-re" to="13c83-0"/>
<connection from="92c58-0-re" to="9922e-0"/>
<connection from="92c58-0-re" to="13c83-0-re"/>
<connection from="92c58-0-re" to="9922e-0-re"/>
<!-- Point b9d33 36248501-f3c5-4d48-a103-d9b21beb9d33 -->
<connection from="f86e1-0" to="8203e-0"/>
<connection from="f86e1-0" to="8203e-0-re"/>
<connection from="f86e1-0-re" to="8203e-0"/>
<connection from="f86e1-0-re" to="8203e-0-re"/>
<connection from="9922e-0" to="8203e-0"/>
<connection from="9922e-0" to="8203e-0-re"/>
<connection from="9922e-0-re" to="8203e-0"/>
<connection from="9922e-0-re" to="8203e-0-re"/>
<connection from="8203e-0" to="f86e1-0"/>
<connection from="8203e-0" to="9922e-0"/>
<connection from="8203e-0" to="f86e1-0-re"/>
<connection from="8203e-0" to="9922e-0-re"/>
<connection from="8203e-0-re" to="f86e1-0"/>
<connection from="8203e-0-re" to="9922e-0"/>
<connection from="8203e-0-re" to="f86e1-0-re"/>
<connection from="8203e-0-re" to="9922e-0-re"/>
<!-- Point 8258a d2649e9c-315a-4011-bf3a-a7d998d8258a -->
<connection from="35b97-0" to="6be58-0"/>
<connection from="35b97-0" to="6be58-0-re"/>
<connection from="35b97-0-re" to="6be58-0"/>
<connection from="35b97-0-re" to="6be58-0-re"/>
<connection from="c6b7d-0" to="6be58-0"/>
<connection from="c6b7d-0" to="6be58-0-re"/>
<connection from="c6b7d-0-re" to="6be58-0"/>
<connection from="c6b7d-0-re" to="6be58-0-re"/>
<connection from="6be58-0" to="35b97-0"/>
<connection from="6be58-0" to="c6b7d-0"/>
<connection from="6be58-0" to="35b97-0-re"/>
<connection from="6be58-0" to="c6b7d-0-re"/>
<connection from="6be58-0-re" to="35b97-0"/>
<connection from="6be58-0-re" to="c6b7d-0"/>
<connection from="6be58-0-re" to="35b97-0-re"/>
<connection from="6be58-0-re" to="c6b7d-0-re"/>
<!-- Point 449a9 03ea0ebb-b279-4fb6-83d6-9d10169449a9 -->
<connection from="dfd25-0" to="ca07a-0"/>
<connection from="dfd25-0" to="ca07a-0-re"/>
<connection from="dfd25-0-re" to="ca07a-0"/>
<connection from="dfd25-0-re" to="ca07a-0-re"/>
<connection from="d06a3-0" to="ca07a-0"/>
<connection from="d06a3-0" to="ca07a-0-re"/>
<connection from="d06a3-0-re" to="ca07a-0"/>
<connection from="d06a3-0-re" to="ca07a-0-re"/>
<connection from="ca07a-0" to="dfd25-0"/>
<connection from="ca07a-0" to="d06a3-0"/>
<connection from="ca07a-0" to="dfd25-0-re"/>
<connection from="ca07a-0" to="d06a3-0-re"/>
<connection from="ca07a-0-re" to="dfd25-0"/>
<connection from="ca07a-0-re" to="d06a3-0"/>
<connection from="ca07a-0-re" to="dfd25-0-re"/>
<connection from="ca07a-0-re" to="d06a3-0-re"/>
<!-- Point 9fab2 ea16460d-368b-4033-9dc4-c5edabe9fab2 -->
<connection from="cecbe-0" to="d06a3-0"/>
<connection from="cecbe-0" to="d06a3-0-re"/>
<connection from="cecbe-0-re" to="d06a3-0"/>
<connection from="cecbe-0-re" to="d06a3-0-re"/>
<connection from="62915-0" to="d06a3-0"/>
<connection from="62915-0" to="d06a3-0-re"/>
<connection from="62915-0-re" to="d06a3-0"/>
<connection from="62915-0-re" to="d06a3-0-re"/>
<connection from="d06a3-0" to="cecbe-0"/>
<connection from="d06a3-0" to="62915-0"/>
<connection from="d06a3-0" to="cecbe-0-re"/>
<connection from="d06a3-0" to="62915-0-re"/>
<connection from="d06a3-0-re" to="cecbe-0"/>
<connection from="d06a3-0-re" to="62915-0"/>
<connection from="d06a3-0-re" to="cecbe-0-re"/>
<connection from="d06a3-0-re" to="62915-0-re"/>
<!-- Point 500ed 0b865b54-46fe-4348-b9b1-877aa00500ed -->
<connection from="7dc2a-0" to="99403-0"/>
<connection from="7dc2a-0" to="99403-0-re"/>
<connection from="7dc2a-0-re" to="99403-0"/>
<connection from="7dc2a-0-re" to="99403-0-re"/>
<connection from="62915-0" to="99403-0"/>
<connection from="62915-0" to="99403-0-re"/>
<connection from="62915-0-re" to="99403-0"/>
<connection from="62915-0-re" to="99403-0-re"/>
<connection from="99403-0" to="7dc2a-0"/>
<connection from="99403-0" to="62915-0"/>
<connection from="99403-0" to="7dc2a-0-re"/>
<connection from="99403-0" to="62915-0-re"/>
<connection from="99403-0-re" to="7dc2a-0"/>
<connection from="99403-0-re" to="62915-0"/>
<connection from="99403-0-re" to="7dc2a-0-re"/>
<connection from="99403-0-re" to="62915-0-re"/>
<!-- Point 1c6af f5000d37-6418-4ec7-9822-f943d511c6af -->
<connection from="99403-0" to="8375e-0"/>
<connection from="99403-0" to="8375e-0-re"/>
<connection from="99403-0-re" to="8375e-0"/>
<connection from="99403-0-re" to="8375e-0-re"/>
<connection from="a542d-0" to="8375e-0"/>
<connection from="a542d-0" to="8375e-0-re"/>
<connection from="a542d-0-re" to="8375e-0"/>
<connection from="a542d-0-re" to="8375e-0-re"/>
<connection from="8375e-0" to="99403-0"/>
<connection from="8375e-0" to="a542d-0"/>
<connection from="8375e-0" to="99403-0-re"/>
<connection from="8375e-0" to="a542d-0-re"/>
<connection from="8375e-0-re" to="99403-0"/>
<connection from="8375e-0-re" to="a542d-0"/>
<connection from="8375e-0-re" to="99403-0-re"/>
<connection from="8375e-0-re" to="a542d-0-re"/>
<!-- Point 42976 530d1906-1854-492c-8338-ab7081842976 -->
<connection from="8375e-0" to="8cea3-0"/>
<connection from="8375e-0" to="8cea3-0-re"/>
<connection from="8375e-0-re" to="8cea3-0"/>
<connection from="8375e-0-re" to="8cea3-0-re"/>
<connection from="0ae3f-0" to="8cea3-0"/>
<connection from="0ae3f-0" to="8cea3-0-re"/>
<connection from="0ae3f-0-re" to="8cea3-0"/>
<connection from="0ae3f-0-re" to="8cea3-0-re"/>
<connection from="8cea3-0" to="8375e-0"/>
<connection from="8cea3-0" to="0ae3f-0"/>
<connection from="8cea3-0" to="8375e-0-re"/>
<connection from="8cea3-0" to="0ae3f-0-re"/>
<connection from="8cea3-0-re" to="8375e-0"/>
<connection from="8cea3-0-re" to="0ae3f-0"/>
<connection from="8cea3-0-re" to="8375e-0-re"/>
<connection from="8cea3-0-re" to="0ae3f-0-re"/>
<!-- Point 28926 d4da0637-779a-4214-b599-099f38b28926 -->
<connection from="0053f-0" to="8cea3-0"/>
<connection from="0053f-0" to="8cea3-0-re"/>
<connection from="0053f-0-re" to="8cea3-0"/>
<connection from="0053f-0-re" to="8cea3-0-re"/>
<connection from="b45e6-0" to="8cea3-0"/>
<connection from="b45e6-0" to="8cea3-0-re"/>
<connection from="b45e6-0-re" to="8cea3-0"/>
<connection from="b45e6-0-re" to="8cea3-0-re"/>
<connection from="8cea3-0" to="0053f-0"/>
<connection from="8cea3-0" to="b45e6-0"/>
<connection from="8cea3-0" to="0053f-0-re"/>
<connection from="8cea3-0" to="b45e6-0-re"/>
<connection from="8cea3-0-re" to="0053f-0"/>
<connection from="8cea3-0-re" to="b45e6-0"/>
<connection from="8cea3-0-re" to="0053f-0-re"/>
<connection from="8cea3-0-re" to="b45e6-0-re"/>
<!-- Point 2bd29 81101eef-5c2d-4b7c-8512-13c16d62bd29 -->
<connection from="39415-0" to="04657-0"/>
<connection from="39415-0" to="04657-0-re"/>
<connection from="39415-0-re" to="04657-0"/>
<connection from="39415-0-re" to="04657-0-re"/>
<connection from="b45e6-0" to="04657-0"/>
<connection from="b45e6-0" to="04657-0-re"/>
<connection from="b45e6-0-re" to="04657-0"/>
<connection from="b45e6-0-re" to="04657-0-re"/>
<connection from="04657-0" to="39415-0"/>
<connection from="04657-0" to="b45e6-0"/>
<connection from="04657-0" to="39415-0-re"/>
<connection from="04657-0" to="b45e6-0-re"/>
<connection from="04657-0-re" to="39415-0"/>
<connection from="04657-0-re" to="b45e6-0"/>
<connection from="04657-0-re" to="39415-0-re"/>
<connection from="04657-0-re" to="b45e6-0-re"/>

<!-- Point e3897 0d939004-0589-4237-821a-5ffbe26e3897 -->
<connection from="cb30f-0" to="5a291-0"/>
<connection from="cb30f-0" to="5a291-0-re"/>
<connection from="cb30f-0-re" to="5a291-0"/>
<connection from="cb30f-0-re" to="5a291-0-re"/>
<connection from="f0ffa-0" to="5a291-0"/>
<connection from="f0ffa-0" to="5a291-0-re"/>
<connection from="f0ffa-0-re" to="5a291-0"/>
<connection from="f0ffa-0-re" to="5a291-0-re"/>
<connection from="5a291-0" to="cb30f-0"/>
<connection from="5a291-0" to="f0ffa-0"/>
<connection from="5a291-0" to="cb30f-0-re"/>
<connection from="5a291-0" to="f0ffa-0-re"/>
<connection from="5a291-0-re" to="cb30f-0"/>
<connection from="5a291-0-re" to="f0ffa-0"/>
<connection from="5a291-0-re" to="cb30f-0-re"/>
<connection from="5a291-0-re" to="f0ffa-0-re"/>
<!-- Point 47b6e 09d609fc-8a08-4cf7-94e2-750168f47b6e -->
<connection from="cb30f-0" to="7ef01-0"/>
<connection from="cb30f-0" to="7ef01-0-re"/>
<connection from="cb30f-0-re" to="7ef01-0"/>
<connection from="cb30f-0-re" to="7ef01-0-re"/>
<connection from="ce411-0" to="7ef01-0"/>
<connection from="ce411-0" to="7ef01-0-re"/>
<connection from="ce411-0-re" to="7ef01-0"/>
<connection from="ce411-0-re" to="7ef01-0-re"/>
<connection from="7ef01-0" to="cb30f-0"/>
<connection from="7ef01-0" to="ce411-0"/>
<connection from="7ef01-0" to="cb30f-0-re"/>
<connection from="7ef01-0" to="ce411-0-re"/>
<connection from="7ef01-0-re" to="cb30f-0"/>
<connection from="7ef01-0-re" to="ce411-0"/>
<connection from="7ef01-0-re" to="cb30f-0-re"/>
<connection from="7ef01-0-re" to="ce411-0-re"/>
<!-- Point e2dce 3a733ac8-1d6c-4e69-bbc1-274a62be2dce -->
<connection from="1d4e7-0" to="7ef01-0"/>
<connection from="1d4e7-0" to="7ef01-0-re"/>
<connection from="1d4e7-0-re" to="7ef01-0"/>
<connection from="1d4e7-0-re" to="7ef01-0-re"/>
<connection from="8ac5a-0" to="7ef01-0"/>
<connection from="8ac5a-0" to="7ef01-0-re"/>
<connection from="8ac5a-0-re" to="7ef01-0"/>
<connection from="8ac5a-0-re" to="7ef01-0-re"/>
<connection from="7ef01-0" to="1d4e7-0"/>
<connection from="7ef01-0" to="8ac5a-0"/>
<connection from="7ef01-0" to="1d4e7-0-re"/>
<connection from="7ef01-0" to="8ac5a-0-re"/>
<connection from="7ef01-0-re" to="1d4e7-0"/>
<connection from="7ef01-0-re" to="8ac5a-0"/>
<connection from="7ef01-0-re" to="1d4e7-0-re"/>
<connection from="7ef01-0-re" to="8ac5a-0-re"/>
<!-- Point 6470b 33821776-4094-49d1-8ec5-93ca71a6470b -->
<connection from="7d9a5-0" to="77fd2-0"/>
<connection from="7d9a5-0" to="77fd2-0-re"/>
<connection from="7d9a5-0-re" to="77fd2-0"/>
<connection from="7d9a5-0-re" to="77fd2-0-re"/>
<connection from="ab380-0" to="77fd2-0"/>
<connection from="ab380-0" to="77fd2-0-re"/>
<connection from="ab380-0-re" to="77fd2-0"/>
<connection from="ab380-0-re" to="77fd2-0-re"/>
<connection from="77fd2-0" to="7d9a5-0"/>
<connection from="77fd2-0" to="ab380-0"/>
<connection from="77fd2-0" to="7d9a5-0-re"/>
<connection from="77fd2-0" to="ab380-0-re"/>
<connection from="77fd2-0-re" to="7d9a5-0"/>
<connection from="77fd2-0-re" to="ab380-0"/>
<connection from="77fd2-0-re" to="7d9a5-0-re"/>
<connection from="77fd2-0-re" to="ab380-0-re"/>
<!-- Point 92704 2bc4de15-f40c-4cc3-a6e1-2cdb51a92704 -->
<connection from="c1f9c-0" to="8203e-0"/>
<connection from="c1f9c-0" to="8203e-0-re"/>
<connection from="c1f9c-0-re" to="8203e-0"/>
<connection from="c1f9c-0-re" to="8203e-0-re"/>
<connection from="87988-0" to="8203e-0"/>
<connection from="87988-0" to="8203e-0-re"/>
<connection from="87988-0-re" to="8203e-0"/>
<connection from="87988-0-re" to="8203e-0-re"/>
<connection from="8203e-0" to="c1f9c-0"/>
<connection from="8203e-0" to="87988-0"/>
<connection from="8203e-0" to="c1f9c-0-re"/>
<connection from="8203e-0" to="87988-0-re"/>
<connection from="8203e-0-re" to="c1f9c-0"/>
<connection from="8203e-0-re" to="87988-0"/>
<connection from="8203e-0-re" to="c1f9c-0-re"/>
<connection from="8203e-0-re" to="87988-0-re"/>
<!-- Point 4030b 00c93f81-5fd7-4880-9268-c2dc3a34030b -->
<connection from="8da65-0" to="c85cf-0"/>
<connection from="8da65-0" to="c85cf-0-re"/>
<connection from="8da65-0-re" to="c85cf-0"/>
<connection from="8da65-0-re" to="c85cf-0-re"/>
<connection from="c1f9c-0" to="c85cf-0"/>
<connection from="c1f9c-0" to="c85cf-0-re"/>
<connection from="c1f9c-0-re" to="c85cf-0"/>
<connection from="c1f9c-0-re" to="c85cf-0-re"/>
<connection from="c85cf-0" to="8da65-0"/>
<connection from="c85cf-0" to="c1f9c-0"/>
<connection from="c85cf-0" to="8da65-0-re"/>
<connection from="c85cf-0" to="c1f9c-0-re"/>
<connection from="c85cf-0-re" to="8da65-0"/>
<connection from="c85cf-0-re" to="c1f9c-0"/>
<connection from="c85cf-0-re" to="8da65-0-re"/>
<connection from="c85cf-0-re" to="c1f9c-0-re"/>
<!-- Point b8454 60fe6664-95e0-465b-b926-a3c3180b8454 -->
<connection from="70ad4-0" to="c85cf-0"/>
<connection from="70ad4-0" to="c85cf-0-re"/>
<connection from="70ad4-0-re" to="c85cf-0"/>
<connection from="70ad4-0-re" to="c85cf-0-re"/>
<connection from="7eebc-0" to="c85cf-0"/>
<connection from="7eebc-0" to="c85cf-0-re"/>
<connection from="7eebc-0-re" to="c85cf-0"/>
<connection from="7eebc-0-re" to="c85cf-0-re"/>
<connection from="c85cf-0" to="70ad4-0"/>
<connection from="c85cf-0" to="7eebc-0"/>
<connection from="c85cf-0" to="70ad4-0-re"/>
<connection from="c85cf-0" to="7eebc-0-re"/>
<connection from="c85cf-0-re" to="70ad4-0"/>
<connection from="c85cf-0-re" to="7eebc-0"/>
<connection from="c85cf-0-re" to="70ad4-0-re"/>
<connection from="c85cf-0-re" to="7eebc-0-re"/>
<!-- Point 4719f ee066dc8-9353-4cf5-898a-e97a7f64719f -->
<connection from="7eebc-0" to="6be58-0"/>
<connection from="7eebc-0" to="6be58-0-re"/>
<connection from="7eebc-0-re" to="6be58-0"/>
<connection from="7eebc-0-re" to="6be58-0-re"/>
<connection from="05479-0" to="6be58-0"/>
<connection from="05479-0" to="6be58-0-re"/>
<connection from="05479-0-re" to="6be58-0"/>
<connection from="05479-0-re" to="6be58-0-re"/>
<connection from="6be58-0" to="7eebc-0"/>
<connection from="6be58-0" to="05479-0"/>
<connection from="6be58-0" to="7eebc-0-re"/>
<connection from="6be58-0" to="05479-0-re"/>
<connection from="6be58-0-re" to="7eebc-0"/>
<connection from="6be58-0-re" to="05479-0"/>
<connection from="6be58-0-re" to="7eebc-0-re"/>
<connection from="6be58-0-re" to="05479-0-re"/>
<!-- Point 4c374 65f69394-250f-49ac-ba00-4bb5ea94c374 -->
<connection from="fe608-0" to="ea9bb-0"/>
<connection from="fe608-0" to="ea9bb-0-re"/>
<connection from="fe608-0-re" to="ea9bb-0"/>
<connection from="fe608-0-re" to="ea9bb-0-re"/>
<connection from="77fd2-0" to="ea9bb-0"/>
<connection from="77fd2-0" to="ea9bb-0-re"/>
<connection from="77fd2-0-re" to="ea9bb-0"/>
<connection from="77fd2-0-re" to="ea9bb-0-re"/>
<connection from="ea9bb-0" to="fe608-0"/>
<connection from="ea9bb-0" to="77fd2-0"/>
<connection from="ea9bb-0" to="fe608-0-re"/>
<connection from="ea9bb-0" to="77fd2-0-re"/>
<connection from="ea9bb-0-re" to="fe608-0"/>
<connection from="ea9bb-0-re" to="77fd2-0"/>
<connection from="ea9bb-0-re" to="fe608-0-re"/>
<connection from="ea9bb-0-re" to="77fd2-0-re"/>

<!-- Point 89daf 900f8e25-0252-40ec-97cd-45428dc89daf -->
<connection from="a5828-0" to="48af0-0"/>
<connection from="a5828-0" to="48af0-0-re"/>
<connection from="a5828-0-re" to="48af0-0"/>
<connection from="a5828-0-re" to="48af0-0-re"/>
<connection from="bcfa4-0" to="48af0-0"/>
<connection from="bcfa4-0" to="48af0-0-re"/>
<connection from="bcfa4-0-re" to="48af0-0"/>
<connection from="bcfa4-0-re" to="48af0-0-re"/>
<connection from="48af0-0" to="a5828-0"/>
<connection from="48af0-0" to="bcfa4-0"/>
<connection from="48af0-0" to="a5828-0-re"/>
<connection from="48af0-0" to="bcfa4-0-re"/>
<connection from="48af0-0-re" to="a5828-0"/>
<connection from="48af0-0-re" to="bcfa4-0"/>
<connection from="48af0-0-re" to="a5828-0-re"/>
<connection from="48af0-0-re" to="bcfa4-0-re"/>

<!-- Point 6497e 84f82d05-67c7-4ed6-af06-fdc95fe6497e -->
<connection from="48af0-0" to="74beb-0"/>
<connection from="48af0-0" to="74beb-0-re"/>
<connection from="48af0-0-re" to="74beb-0"/>
<connection from="48af0-0-re" to="74beb-0-re"/>
<connection from="83377-0" to="74beb-0"/>
<connection from="83377-0" to="74beb-0-re"/>
<connection from="83377-0-re" to="74beb-0"/>
<connection from="83377-0-re" to="74beb-0-re"/>
<connection from="74beb-0" to="48af0-0"/>
<connection from="74beb-0" to="83377-0"/>
<connection from="74beb-0" to="48af0-0-re"/>
<connection from="74beb-0" to="83377-0-re"/>
<connection from="74beb-0-re" to="48af0-0"/>
<connection from="74beb-0-re" to="83377-0"/>
<connection from="74beb-0-re" to="48af0-0-re"/>
<connection from="74beb-0-re" to="83377-0-re"/>
<!-- Point 8cfd7 fe9855e9-c5d9-4c09-adf7-0b11ff58cfd7 -->
<connection from="0ce7d-0" to="5c2bb-0"/>
<connection from="0ce7d-0" to="5c2bb-0-re"/>
<connection from="0ce7d-0-re" to="5c2bb-0"/>
<connection from="0ce7d-0-re" to="5c2bb-0-re"/>
<connection from="74beb-0" to="5c2bb-0"/>
<connection from="74beb-0" to="5c2bb-0-re"/>
<connection from="74beb-0-re" to="5c2bb-0"/>
<connection from="74beb-0-re" to="5c2bb-0-re"/>
<connection from="5c2bb-0" to="0ce7d-0"/>
<connection from="5c2bb-0" to="74beb-0"/>
<connection from="5c2bb-0" to="0ce7d-0-re"/>
<connection from="5c2bb-0" to="74beb-0-re"/>
<connection from="5c2bb-0-re" to="0ce7d-0"/>
<connection from="5c2bb-0-re" to="74beb-0"/>
<connection from="5c2bb-0-re" to="0ce7d-0-re"/>
<connection from="5c2bb-0-re" to="74beb-0-re"/>
<!-- Point e144d 074722a7-92b2-42fc-bb54-6f96124e144d -->
<connection from="2a17c-0" to="5c2bb-0"/>
<connection from="2a17c-0" to="5c2bb-0-re"/>
<connection from="2a17c-0-re" to="5c2bb-0"/>
<connection from="2a17c-0-re" to="5c2bb-0-re"/>
<connection from="2740c-0" to="5c2bb-0"/>
<connection from="2740c-0" to="5c2bb-0-re"/>
<connection from="2740c-0-re" to="5c2bb-0"/>
<connection from="2740c-0-re" to="5c2bb-0-re"/>
<connection from="5c2bb-0" to="2a17c-0"/>
<connection from="5c2bb-0" to="2740c-0"/>
<connection from="5c2bb-0" to="2a17c-0-re"/>
<connection from="5c2bb-0" to="2740c-0-re"/>
<connection from="5c2bb-0-re" to="2a17c-0"/>
<connection from="5c2bb-0-re" to="2740c-0"/>
<connection from="5c2bb-0-re" to="2a17c-0-re"/>
<connection from="5c2bb-0-re" to="2740c-0-re"/>
<!-- Point dede9 25c72b5f-26ce-4e05-9374-e9b93c6dede9 -->
<connection from="2f129-0" to="8f323-0"/>
<connection from="2f129-0" to="8f323-0-re"/>
<connection from="2f129-0-re" to="8f323-0"/>
<connection from="2f129-0-re" to="8f323-0-re"/>
<connection from="2a17c-0" to="8f323-0"/>
<connection from="2a17c-0" to="8f323-0-re"/>
<connection from="2a17c-0-re" to="8f323-0"/>
<connection from="2a17c-0-re" to="8f323-0-re"/>
<connection from="8f323-0" to="2f129-0"/>
<connection from="8f323-0" to="2a17c-0"/>
<connection from="8f323-0" to="2f129-0-re"/>
<connection from="8f323-0" to="2a17c-0-re"/>
<connection from="8f323-0-re" to="2f129-0"/>
<connection from="8f323-0-re" to="2a17c-0"/>
<connection from="8f323-0-re" to="2f129-0-re"/>
<connection from="8f323-0-re" to="2a17c-0-re"/>
<!-- Point 12acb beac09aa-6dbf-436e-9b37-7d2823312acb -->
<connection from="58bf4-0" to="8f323-0"/>
<connection from="58bf4-0" to="8f323-0-re"/>
<connection from="58bf4-0-re" to="8f323-0"/>
<connection from="58bf4-0-re" to="8f323-0-re"/>
<connection from="8b3ed-0" to="8f323-0"/>
<connection from="8b3ed-0" to="8f323-0-re"/>
<connection from="8b3ed-0-re" to="8f323-0"/>
<connection from="8b3ed-0-re" to="8f323-0-re"/>
<connection from="8f323-0" to="58bf4-0"/>
<connection from="8f323-0" to="8b3ed-0"/>
<connection from="8f323-0" to="58bf4-0-re"/>
<connection from="8f323-0" to="8b3ed-0-re"/>
<connection from="8f323-0-re" to="58bf4-0"/>
<connection from="8f323-0-re" to="8b3ed-0"/>
<connection from="8f323-0-re" to="58bf4-0-re"/>
<connection from="8f323-0-re" to="8b3ed-0-re"/>
<!-- Point cd4b4 ba99a36d-c79b-4fbb-ada1-dcfdc9ccd4b4 -->
<connection from="6f51c-0" to="7de3f-0"/>
<connection from="6f51c-0" to="7de3f-0-re"/>
<connection from="6f51c-0-re" to="7de3f-0"/>
<connection from="6f51c-0-re" to="7de3f-0-re"/>
<connection from="58bf4-0" to="7de3f-0"/>
<connection from="58bf4-0" to="7de3f-0-re"/>
<connection from="58bf4-0-re" to="7de3f-0"/>
<connection from="58bf4-0-re" to="7de3f-0-re"/>
<connection from="7de3f-0" to="6f51c-0"/>
<connection from="7de3f-0" to="58bf4-0"/>
<connection from="7de3f-0" to="6f51c-0-re"/>
<connection from="7de3f-0" to="58bf4-0-re"/>
<connection from="7de3f-0-re" to="6f51c-0"/>
<connection from="7de3f-0-re" to="58bf4-0"/>
<connection from="7de3f-0-re" to="6f51c-0-re"/>
<connection from="7de3f-0-re" to="58bf4-0-re"/>
<!-- Point e584b 0080ef85-0e5a-4bee-9b30-228288ee584b -->
<connection from="7de3f-0" to="fe53e-0"/>
<connection from="7de3f-0" to="fe53e-0-re"/>
<connection from="7de3f-0-re" to="fe53e-0"/>
<connection from="7de3f-0-re" to="fe53e-0-re"/>
<connection from="be97e-0" to="fe53e-0"/>
<connection from="be97e-0" to="fe53e-0-re"/>
<connection from="be97e-0-re" to="fe53e-0"/>
<connection from="be97e-0-re" to="fe53e-0-re"/>
<connection from="fe53e-0" to="7de3f-0"/>
<connection from="fe53e-0" to="be97e-0"/>
<connection from="fe53e-0" to="7de3f-0-re"/>
<connection from="fe53e-0" to="be97e-0-re"/>
<connection from="fe53e-0-re" to="7de3f-0"/>
<connection from="fe53e-0-re" to="be97e-0"/>
<connection from="fe53e-0-re" to="7de3f-0-re"/>
<connection from="fe53e-0-re" to="be97e-0-re"/>
<!-- Point 42187 fddd4da5-a09d-49bd-ab30-725f76442187 -->
<connection from="19d1b-0" to="ee4b0-0"/>
<connection from="19d1b-0" to="ee4b0-0-re"/>
<connection from="19d1b-0-re" to="ee4b0-0"/>
<connection from="19d1b-0-re" to="ee4b0-0-re"/>
<connection from="58dd2-0" to="ee4b0-0"/>
<connection from="58dd2-0" to="ee4b0-0-re"/>
<connection from="58dd2-0-re" to="ee4b0-0"/>
<connection from="58dd2-0-re" to="ee4b0-0-re"/>
<connection from="ee4b0-0" to="19d1b-0"/>
<connection from="ee4b0-0" to="58dd2-0"/>
<connection from="ee4b0-0" to="19d1b-0-re"/>
<connection from="ee4b0-0" to="58dd2-0-re"/>
<connection from="ee4b0-0-re" to="19d1b-0"/>
<connection from="ee4b0-0-re" to="58dd2-0"/>
<connection from="ee4b0-0-re" to="19d1b-0-re"/>
<connection from="ee4b0-0-re" to="58dd2-0-re"/>
<!-- Point dfa93 bcbe809b-067d-4b49-8916-92f69d8dfa93 -->
<connection from="19d1b-0" to="d23ae-0"/>
<connection from="19d1b-0" to="d23ae-0-re"/>
<connection from="19d1b-0-re" to="d23ae-0"/>
<connection from="19d1b-0-re" to="d23ae-0-re"/>
<connection from="efb32-0" to="d23ae-0"/>
<connection from="efb32-0" to="d23ae-0-re"/>
<connection from="efb32-0-re" to="d23ae-0"/>
<connection from="efb32-0-re" to="d23ae-0-re"/>
<connection from="d23ae-0" to="19d1b-0"/>
<connection from="d23ae-0" to="efb32-0"/>
<connection from="d23ae-0" to="19d1b-0-re"/>
<connection from="d23ae-0" to="efb32-0-re"/>
<connection from="d23ae-0-re" to="19d1b-0"/>
<connection from="d23ae-0-re" to="efb32-0"/>
<connection from="d23ae-0-re" to="19d1b-0-re"/>
<connection from="d23ae-0-re" to="efb32-0-re"/>
<!-- Point 3243b 4f1c199b-5c42-4306-8b4b-3b455133243b -->
<connection from="70ad4-0" to="d23ae-0"/>
<connection from="70ad4-0" to="d23ae-0-re"/>
<connection from="70ad4-0-re" to="d23ae-0"/>
<connection from="70ad4-0-re" to="d23ae-0-re"/>
<connection from="7b91c-0" to="d23ae-0"/>
<connection from="7b91c-0" to="d23ae-0-re"/>
<connection from="7b91c-0-re" to="d23ae-0"/>
<connection from="7b91c-0-re" to="d23ae-0-re"/>
<connection from="d23ae-0" to="70ad4-0"/>
<connection from="d23ae-0" to="7b91c-0"/>
<connection from="d23ae-0" to="70ad4-0-re"/>
<connection from="d23ae-0" to="7b91c-0-re"/>
<connection from="d23ae-0-re" to="70ad4-0"/>
<connection from="d23ae-0-re" to="7b91c-0"/>
<connection from="d23ae-0-re" to="70ad4-0-re"/>
<connection from="d23ae-0-re" to="7b91c-0-re"/>
<!-- Point 5af53 71461ed2-410d-4c78-9724-7d1789e5af53 -->
<connection from="a3b40-0" to="7b91c-0"/>
<connection from="a3b40-0" to="7b91c-0-re"/>
<connection from="a3b40-0-re" to="7b91c-0"/>
<connection from="a3b40-0-re" to="7b91c-0-re"/>
<connection from="328ff-0" to="7b91c-0"/>
<connection from="328ff-0" to="7b91c-0-re"/>
<connection from="328ff-0-re" to="7b91c-0"/>
<connection from="328ff-0-re" to="7b91c-0-re"/>
<connection from="7b91c-0" to="a3b40-0"/>
<connection from="7b91c-0" to="328ff-0"/>
<connection from="7b91c-0" to="a3b40-0-re"/>
<connection from="7b91c-0" to="328ff-0-re"/>
<connection from="7b91c-0-re" to="a3b40-0"/>
<connection from="7b91c-0-re" to="328ff-0"/>
<connection from="7b91c-0-re" to="a3b40-0-re"/>
<connection from="7b91c-0-re" to="328ff-0-re"/>
<!-- Point c83f9 c7665cad-7cac-45cb-97a4-42ac429c83f9 -->
<connection from="2f129-0" to="2c5ea-0"/>
<connection from="2f129-0" to="2c5ea-0-re"/>
<connection from="2f129-0-re" to="2c5ea-0"/>
<connection from="2f129-0-re" to="2c5ea-0-re"/>
<connection from="d4581-0" to="2c5ea-0"/>
<connection from="d4581-0" to="2c5ea-0-re"/>
<connection from="d4581-0-re" to="2c5ea-0"/>
<connection from="d4581-0-re" to="2c5ea-0-re"/>
<connection from="2c5ea-0" to="2f129-0"/>
<connection from="2c5ea-0" to="d4581-0"/>
<connection from="2c5ea-0" to="2f129-0-re"/>
<connection from="2c5ea-0" to="d4581-0-re"/>
<connection from="2c5ea-0-re" to="2f129-0"/>
<connection from="2c5ea-0-re" to="d4581-0"/>
<connection from="2c5ea-0-re" to="2f129-0-re"/>
<connection from="2c5ea-0-re" to="d4581-0-re"/>
<!-- Point 2cd82 f50266c0-b881-422b-891c-4ed3b7b2cd82 -->
<connection from="52e1a-0" to="2c5ea-0"/>
<connection from="52e1a-0" to="2c5ea-0-re"/>
<connection from="52e1a-0-re" to="2c5ea-0"/>
<connection from="52e1a-0-re" to="2c5ea-0-re"/>
<connection from="2740c-0" to="2c5ea-0"/>
<connection from="2740c-0" to="2c5ea-0-re"/>
<connection from="2740c-0-re" to="2c5ea-0"/>
<connection from="2740c-0-re" to="2c5ea-0-re"/>
<connection from="2c5ea-0" to="52e1a-0"/>
<connection from="2c5ea-0" to="2740c-0"/>
<connection from="2c5ea-0" to="52e1a-0-re"/>
<connection from="2c5ea-0" to="2740c-0-re"/>
<connection from="2c5ea-0-re" to="52e1a-0"/>
<connection from="2c5ea-0-re" to="2740c-0"/>
<connection from="2c5ea-0-re" to="52e1a-0-re"/>
<connection from="2c5ea-0-re" to="2740c-0-re"/>
<!-- Point e94dc ffb59c01-7dec-477d-8f10-1b8200de94dc -->
<connection from="2a3e1-0" to="ca657-0"/>
<connection from="2a3e1-0" to="ca657-0-re"/>
<connection from="2a3e1-0-re" to="ca657-0"/>
<connection from="2a3e1-0-re" to="ca657-0-re"/>
<connection from="c1eaa-0" to="ca657-0"/>
<connection from="c1eaa-0" to="ca657-0-re"/>
<connection from="c1eaa-0-re" to="ca657-0"/>
<connection from="c1eaa-0-re" to="ca657-0-re"/>
<connection from="ca657-0" to="2a3e1-0"/>
<connection from="ca657-0" to="c1eaa-0"/>
<connection from="ca657-0" to="2a3e1-0-re"/>
<connection from="ca657-0" to="c1eaa-0-re"/>
<connection from="ca657-0-re" to="2a3e1-0"/>
<connection from="ca657-0-re" to="c1eaa-0"/>
<connection from="ca657-0-re" to="2a3e1-0-re"/>
<connection from="ca657-0-re" to="c1eaa-0-re"/>
<!-- Point 6650a fe79d531-1be3-4e1e-8dc3-ddbebc46650a -->
<connection from="2a3e1-0" to="dffc8-0"/>
<connection from="2a3e1-0" to="dffc8-0-re"/>
<connection from="2a3e1-0-re" to="dffc8-0"/>
<connection from="2a3e1-0-re" to="dffc8-0-re"/>
<connection from="4eb2d-0" to="dffc8-0"/>
<connection from="4eb2d-0" to="dffc8-0-re"/>
<connection from="4eb2d-0-re" to="dffc8-0"/>
<connection from="4eb2d-0-re" to="dffc8-0-re"/>