<connections>
<!-- Point ea114 3305fe69-9043-4cf2-9500-394872fea114 -->
<connection from="b47bd-0" to="2ed2f-0"/>
<connection from="b47bd-0" to="2ed2f-0-re"/>
<connection from="b47bd-0-re" to="2ed2f-0"/>
<connection from="b47bd-0-re" to="2ed2f-0-re"/>
<connection from="43608-0" to="2ed2f-0"/>
<connection from="43608-0" to="2ed2f-0-re"/>
<connection from="43608-0-re" to="2ed2f-0"/>
<connection from="43608-0-re" to="2ed2f-0-re"/>
<connection from="2ed2f-0" to="b47bd-0"/>
<connection from="2ed2f-0" to="43608-0"/>
<connection from="2ed2f-0" to="b47bd-0-re"/>
<connection from="2ed2f-0" to="43608-0-re"/>
<connection from="2ed2f-0-re" to="b47bd-0"/>
<connection from="2ed2f-0-re" to="43608-0"/>
<connection from="2ed2f-0-re" to="b47bd-0-re"/>
<connection from="2ed2f-0-re" to="43608-0-re"/>
<!-- Point 66c99 e311b5fc-d65d-4706-9d21-c9debe766c99 -->
<connection from="501bc-0" to="43608-2"/>
<connection from="501bc-0" to="43608-2-re"/>
<connection from="501bc-0-re" to="43608-2"/>
<connection from="501bc-0-re" to="43608-2-re"/>
<connection from="d911e-0" to="43608-2"/>
<connection from="d911e-0" to="43608-2-re"/>
<connection from="d911e-0-re" to="43608-2"/>
<connection from="d911e-0-re" to="43608-2-re"/>
<connection from="43608-2" to="501bc-0"/>
<connection from="43608-2" to="d911e-0"/>
<connection from="43608-2" to="501bc-0-re"/>
<connection from="43608-2" to="d911e-0-re"/>
<connection from="43608-2-re" to="501bc-0"/>
<connection from="43608-2-re" to="d911e-0"/>
<connection from="43608-2-re" to="501bc-0-re"/>
<connection from="43608-2-re" to="d911e-0-re"/>
<!-- Point 7c26d 05cd4ddb-fa26-4642-a4be-2efbc827c26d -->
<connection from="a405d-0" to="8f4be-0"/>
<connection from="a405d-0" to="8f4be-0-re"/>
<connection from="a405d-0-re" to="8f4be-0"/>
<connection from="a405d-0-re" to="8f4be-0-re"/>
<connection from="501bc-2" to="8f4be-0"/>
<connection from="501bc-2" to="8f4be-0-re"/>
<connection from="501bc-2-re" to="8f4be-0"/>
<connection from="501bc-2-re" to="8f4be-0-re"/>
<connection from="8f4be-0" to="a405d-0"/>
<connection from="8f4be-0" to="501bc-2"/>
<connection from="8f4be-0" to="a405d-0-re"/>
<connection from="8f4be-0" to="501bc-2-re"/>
<connection from="8f4be-0-re" to="a405d-0"/>
<connection from="8f4be-0-re" to="501bc-2"/>
<connection from="8f4be-0-re" to="a405d-0-re"/>
<connection from="8f4be-0-re" to="501bc-2-re"/>
<!-- Point e5737 3c45c6d9-f22e-4bdc-affe-4435551e5737 -->
<connection from="8f4be-2" to="243ec-0"/>
<connection from="8f4be-2" to="243ec-0-re"/>
<connection from="8f4be-2-re" to="243ec-0"/>
<connection from="8f4be-2-re" to="243ec-0-re"/>
<connection from="15975-0" to="243ec-0"/>
<connection from="15975-0" to="243ec-0-re"/>
<connection from="15975-0-re" to="243ec-0"/>
<connection from="15975-0-re" to="243ec-0-re"/>
<connection from="243ec-0" to="8f4be-2"/>
<connection from="243ec-0" to="15975-0"/>
<connection from="243ec-0" to="8f4be-2-re"/>
<connection from="243ec-0" to="15975-0-re"/>
<connection from="243ec-0-re" to="8f4be-2"/>
<connection from="243ec-0-re" to="15975-0"/>
<connection from="243ec-0-re" to="8f4be-2-re"/>
<connection from="243ec-0-re" to="15975-0-re"/>
<!-- Point a4ce9 0afd9f9d-9acc-43fc-88d4-8be39b4a4ce9 -->
<connection from="6dd48-0" to="6fa8e-0"/>
<connection from="6dd48-0" to="6fa8e-0-re"/>
<connection from="6dd48-0-re" to="6fa8e-0"/>
<connection from="6dd48-0-re" to="6fa8e-0-re"/>
<connection from="a55f2-0" to="6fa8e-0"/>
<connection from="a55f2-0" to="6fa8e-0-re"/>
<connection from="a55f2-0-re" to="6fa8e-0"/>
<connection from="a55f2-0-re" to="6fa8e-0-re"/>
<connection from="6fa8e-0" to="6dd48-0"/>
<connection from="6fa8e-0" to="a55f2-0"/>
<connection from="6fa8e-0" to="6dd48-0-re"/>
<connection from="6fa8e-0" to="a55f2-0-re"/>
<connection from="6fa8e-0-re" to="6dd48-0"/>
<connection from="6fa8e-0-re" to="a55f2-0"/>
<connection from="6fa8e-0-re" to="6dd48-0-re"/>
<connection from="6fa8e-0-re" to="a55f2-0-re"/>
<!-- Point bfbea 85b92ad7-1ba3-4b01-baa8-a6fde86bfbea -->
<connection from="a6ba2-0" to="76c39-0"/>
<connection from="a6ba2-0" to="76c39-0-re"/>
<connection from="a6ba2-0-re" to="76c39-0"/>
<connection from="a6ba2-0-re" to="76c39-0-re"/>
<connection from="a55f2-2" to="76c39-0"/>
<connection from="a55f2-2" to="76c39-0-re"/>
<connection from="a55f2-2-re" to="76c39-0"/>
<connection from="a55f2-2-re" to="76c39-0-re"/>
<connection from="76c39-0" to="a6ba2-0"/>
<connection from="76c39-0" to="a55f2-2"/>
<connection from="76c39-0" to="a6ba2-0-re"/>
<connection from="76c39-0" to="a55f2-2-re"/>
<connection from="76c39-0-re" to="a6ba2-0"/>
<connection from="76c39-0-re" to="a55f2-2"/>
<connection from="76c39-0-re" to="a6ba2-0-re"/>
<connection from="76c39-0-re" to="a55f2-2-re"/>
<!-- Point f7101 8cecf40f-04c2-4a4b-a4bd-9255674f7101 -->
<connection from="d2923-0" to="02623-0"/>
<connection from="d2923-0" to="02623-0-re"/>
<connection from="d2923-0-re" to="02623-0"/>
<connection from="d2923-0-re" to="02623-0-re"/>
<connection from="0046c-0" to="02623-0"/>
<connection from="0046c-0" to="02623-0-re"/>
<connection from="0046c-0-re" to="02623-0"/>
<connection from="0046c-0-re" to="02623-0-re"/>
<connection from="02623-0" to="d2923-0"/>
<connection from="02623-0" to="0046c-0"/>
<connection from="02623-0" to="d2923-0-re"/>
<connection from="02623-0" to="0046c-0-re"/>
<connection from="02623-0-re" to="d2923-0"/>
<connection from="02623-0-re" to="0046c-0"/>
<connection from="02623-0-re" to="d2923-0-re"/>
<connection from="02623-0-re" to="0046c-0-re"/>
<!-- Point 22231 3c612267-391e-4b0c-bd83-191e87f22231 -->
<connection from="6228b-0" to="cc324-0"/>
<connection from="6228b-0" to="cc324-0-re"/>
<connection from="6228b-0-re" to="cc324-0"/>
<connection from="6228b-0-re" to="cc324-0-re"/>
<connection from="17ddd-0" to="cc324-0"/>
<connection from="17ddd-0" to="cc324-0-re"/>
<connection from="17ddd-0-re" to="cc324-0"/>
<connection from="17ddd-0-re" to="cc324-0-re"/>
<connection from="cc324-0" to="6228b-0"/>
<connection from="cc324-0" to="17ddd-0"/>
<connection from="cc324-0" to="6228b-0-re"/>
<connection from="cc324-0" to="17ddd-0-re"/>
<connection from="cc324-0-re" to="6228b-0"/>
<connection from="cc324-0-re" to="17ddd-0"/>
<connection from="cc324-0-re" to="6228b-0-re"/>
<connection from="cc324-0-re" to="17ddd-0-re"/>
<!-- Point 4922e 26ea97dd-f669-4a99-a1b8-18d47de4922e -->
<connection from="0b6af-0" to="17ddd-0"/>
<connection from="0b6af-0" to="17ddd-0-re"/>
<connection from="0b6af-0-re" to="17ddd-0"/>
<connection from="0b6af-0-re" to="17ddd-0-re"/>
<connection from="80ece-0" to="17ddd-0"/>
<connection from="80ece-0" to="17ddd-0-re"/>
<connection from="80ece-0-re" to="17ddd-0"/>
<connection from="80ece-0-re" to="17ddd-0-re"/>
<connection from="17ddd-0" to="0b6af-0"/>
<connection from="17ddd-0" to="80ece-0"/>
<connection from="17ddd-0" to="0b6af-0-re"/>
<connection from="17ddd-0" to="80ece-0-re"/>
<connection from="17ddd-0-re" to="0b6af-0"/>
<connection from="17ddd-0-re" to="80ece-0"/>
<connection from="17ddd-0-re" to="0b6af-0-re"/>
<connection from="17ddd-0-re" to="80ece-0-re"/>
<!-- Point af986 551555d9-1b64-48fd-bed0-9e9e4e9af986 -->
<connection from="1550a-0" to="a7b99-0"/>
<connection from="1550a-0" to="a7b99-0-re"/>
<connection from="1550a-0-re" to="a7b99-0"/>
<connection from="1550a-0-re" to="a7b99-0-re"/>
<connection from="80ece-2" to="a7b99-0"/>
<connection from="80ece-2" to="a7b99-0-re"/>
<connection from="80ece-2-re" to="a7b99-0"/>
<connection from="80ece-2-re" to="a7b99-0-re"/>
<connection from="a7b99-0" to="1550a-0"/>
<connection from="a7b99-0" to="80ece-2"/>
<connection from="a7b99-0" to="1550a-0-re"/>
<connection from="a7b99-0" to="80ece-2-re"/>
<connection from="a7b99-0-re" to="1550a-0"/>
<connection from="a7b99-0-re" to="80ece-2"/>
<connection from="a7b99-0-re" to="1550a-0-re"/>
<connection from="a7b99-0-re" to="80ece-2-re"/>
<!-- Point 25dd6 fa979f3a-895a-46c6-807a-debfa2d25dd6 -->
<connection from="a7b99-0" to="97284-0"/>
<connection from="a7b99-0" to="97284-0-re"/>
<connection from="a7b99-0-re" to="97284-0"/>
<connection from="a7b99-0-re" to="97284-0-re"/>
<connection from="092ae-0" to="97284-0"/>
<connection from="092ae-0" to="97284-0-re"/>
<connection from="092ae-0-re" to="97284-0"/>
<connection from="092ae-0-re" to="97284-0-re"/>
<connection from="97284-0" to="a7b99-0"/>
<connection from="97284-0" to="092ae-0"/>
<connection from="97284-0" to="a7b99-0-re"/>
<connection from="97284-0" to="092ae-0-re"/>
<connection from="97284-0-re" to="a7b99-0"/>
<connection from="97284-0-re" to="092ae-0"/>
<connection from="97284-0-re" to="a7b99-0-re"/>
<connection from="97284-0-re" to="092ae-0-re"/>
<!-- Point 7dc8c da1ad1b9-095e-4a14-bec2-15d949a7dc8c -->
<connection from="97284-0" to="52f54-0"/>
<connection from="97284-0" to="52f54-0-re"/>
<connection from="97284-0-re" to="52f54-0"/>
<connection from="97284-0-re" to="52f54-0-re"/>
<connection from="4defd-0" to="52f54-0"/>
<connection from="4defd-0" to="52f54-0-re"/>
<connection from="4defd-0-re" to="52f54-0"/>
<connection from="4defd-0-re" to="52f54-0-re"/>
<connection from="52f54-0" to="97284-0"/>
<connection from="52f54-0" to="4defd-0"/>
<connection from="52f54-0" to="97284-0-re"/>
<connection from="52f54-0" to="4defd-0-re"/>
<connection from="52f54-0-re" to="97284-0"/>
<connection from="52f54-0-re" to="4defd-0"/>
<connection from="52f54-0-re" to="97284-0-re"/>
<connection from="52f54-0-re" to="4defd-0-re"/>
<!-- Point a4cdf 3b700724-1a14-4b9d-90c4-cb83df7a4cdf -->
<connection from="64137-0" to="52f54-2"/>
<connection from="64137-0" to="52f54-2-re"/>
<connection from="64137-0-re" to="52f54-2"/>
<connection from="64137-0-re" to="52f54-2-re"/>
<connection from="7c280-0" to="52f54-2"/>
<connection from="7c280-0" to="52f54-2-re"/>
<connection from="7c280-0-re" to="52f54-2"/>
<connection from="7c280-0-re" to="52f54-2-re"/>
<connection from="52f54-2" to="64137-0"/>
<connection from="52f54-2" to="7c280-0"/>
<connection from="52f54-2" to="64137-0-re"/>
<connection from="52f54-2" to="7c280-0-re"/>
<connection from="52f54-2-re" to="64137-0"/>
<connection from="52f54-2-re" to="7c280-0"/>
<connection from="52f54-2-re" to="64137-0-re"/>
<connection from="52f54-2-re" to="7c280-0-re"/>
<!-- Point 4de62 a03e306f-44ff-4c23-96de-3d1fd6b4de62 -->
<connection from="1ae8d-0" to="b8cdf-0"/>
<connection from="1ae8d-0" to="b8cdf-0-re"/>
<connection from="1ae8d-0-re" to="b8cdf-0"/>
<connection from="1ae8d-0-re" to="b8cdf-0-re"/>
<connection from="7c280-2" to="b8cdf-0"/>
<connection from="7c280-2" to="b8cdf-0-re"/>
<connection from="7c280-2-re" to="b8cdf-0"/>
<connection from="7c280-2-re" to="b8cdf-0-re"/>
<connection from="b8cdf-0" to="1ae8d-0"/>
<connection from="b8cdf-0" to="7c280-2"/>
<connection from="b8cdf-0" to="1ae8d-0-re"/>
<connection from="b8cdf-0" to="7c280-2-re"/>
<connection from="b8cdf-0-re" to="1ae8d-0"/>
<connection from="b8cdf-0-re" to="7c280-2"/>
<connection from="b8cdf-0-re" to="1ae8d-0-re"/>
<connection from="b8cdf-0-re" to="7c280-2-re"/>

<!-- Point 2492c 1aceb66a-809a-4556-ad5b-121f2572492c -->
<connection from="7632f-0" to="b52ec-0"/>
<connection from="7632f-0" to="b52ec-0-re"/>
<connection from="7632f-0-re" to="b52ec-0"/>
<connection from="7632f-0-re" to="b52ec-0-re"/>
<connection from="81376-0" to="b52ec-0"/>
<connection from="81376-0" to="b52ec-0-re"/>
<connection from="81376-0-re" to="b52ec-0"/>
<connection from="81376-0-re" to="b52ec-0-re"/>
<connection from="b52ec-0" to="7632f-0"/>
<connection from="b52ec-0" to="81376-0"/>
<connection from="b52ec-0" to="7632f-0-re"/>
<connection from="b52ec-0" to="81376-0-re"/>
<connection from="b52ec-0-re" to="7632f-0"/>
<connection from="b52ec-0-re" to="81376-0"/>
<connection from="b52ec-0-re" to="7632f-0-re"/>
<connection from="b52ec-0-re" to="81376-0-re"/>
<!-- Point 07350 aa8a9691-5373-4ca0-a3f7-4f2532107350 -->
<connection from="7632f-2" to="2c3a8-0"/>
<connection from="7632f-2" to="2c3a8-0-re"/>
<connection from="7632f-2-re" to="2c3a8-0"/>
<connection from="7632f-2-re" to="2c3a8-0-re"/>
<connection from="fe4c2-0" to="2c3a8-0"/>
<connection from="fe4c2-0" to="2c3a8-0-re"/>
<connection from="fe4c2-0-re" to="2c3a8-0"/>
<connection from="fe4c2-0-re" to="2c3a8-0-re"/>
<connection from="2c3a8-0" to="7632f-2"/>
<connection from="2c3a8-0" to="fe4c2-0"/>
<connection from="2c3a8-0" to="7632f-2-re"/>
<connection from="2c3a8-0" to="fe4c2-0-re"/>
<connection from="2c3a8-0-re" to="7632f-2"/>
<connection from="2c3a8-0-re" to="fe4c2-0"/>
<connection from="2c3a8-0-re" to="7632f-2-re"/>
<connection from="2c3a8-0-re" to="fe4c2-0-re"/>
<!-- Point 334c2 e9a962cc-8b83-4104-8a91-c92fd78334c2 -->
<connection from="86a27-0" to="2c3a8-0"/>
<connection from="86a27-0" to="2c3a8-0-re"/>
<connection from="86a27-0-re" to="2c3a8-0"/>
<connection from="86a27-0-re" to="2c3a8-0-re"/>
<connection from="3a792-0" to="2c3a8-0"/>
<connection from="3a792-0" to="2c3a8-0-re"/>
<connection from="3a792-0-re" to="2c3a8-0"/>
<connection from="3a792-0-re" to="2c3a8-0-re"/>
<connection from="2c3a8-0" to="86a27-0"/>
<connection from="2c3a8-0" to="3a792-0"/>
<connection from="2c3a8-0" to="86a27-0-re"/>
<connection from="2c3a8-0" to="3a792-0-re"/>
<connection from="2c3a8-0-re" to="86a27-0"/>
<connection from="2c3a8-0-re" to="3a792-0"/>
<connection from="2c3a8-0-re" to="86a27-0-re"/>
<connection from="2c3a8-0-re" to="3a792-0-re"/>
<!-- Point c8437 d91cde5f-5121-4440-b6c7-d6f28bdc8437 -->
<connection from="bace0-0" to="e0d47-0"/>
<connection from="bace0-0" to="e0d47-0-re"/>
<connection from="bace0-0-re" to="e0d47-0"/>
<connection from="bace0-0-re" to="e0d47-0-re"/>
<connection from="cd504-0" to="e0d47-0"/>
<connection from="cd504-0" to="e0d47-0-re"/>
<connection from="cd504-0-re" to="e0d47-0"/>
<connection from="cd504-0-re" to="e0d47-0-re"/>
<connection from="e0d47-0" to="bace0-0"/>
<connection from="e0d47-0" to="cd504-0"/>
<connection from="e0d47-0" to="bace0-0-re"/>
<connection from="e0d47-0" to="cd504-0-re"/>
<connection from="e0d47-0-re" to="bace0-0"/>
<connection from="e0d47-0-re" to="cd504-0"/>
<connection from="e0d47-0-re" to="bace0-0-re"/>
<connection from="e0d47-0-re" to="cd504-0-re"/>
<!-- Point 682c9 5c79baec-7e4a-4520-9f49-4dc6e07682c9 -->
<connection from="9c667-0" to="76c39-2"/>
<connection from="9c667-0" to="76c39-2-re"/>
<connection from="9c667-0-re" to="76c39-2"/>
<connection from="9c667-0-re" to="76c39-2-re"/>
<connection from="af2cd-0" to="76c39-2"/>
<connection from="af2cd-0" to="76c39-2-re"/>
<connection from="af2cd-0-re" to="76c39-2"/>
<connection from="af2cd-0-re" to="76c39-2-re"/>
<connection from="76c39-2" to="9c667-0"/>
<connection from="76c39-2" to="af2cd-0"/>
<connection from="76c39-2" to="9c667-0-re"/>
<connection from="76c39-2" to="af2cd-0-re"/>
<connection from="76c39-2-re" to="9c667-0"/>
<connection from="76c39-2-re" to="af2cd-0"/>
<connection from="76c39-2-re" to="9c667-0-re"/>
<connection from="76c39-2-re" to="af2cd-0-re"/>
<!-- Point 6f7ac 16e14c6a-5042-4a54-a37f-bfe2aac6f7ac -->
<connection from="6a6c3-0" to="4244a-0"/>
<connection from="6a6c3-0" to="4244a-0-re"/>
<connection from="6a6c3-0-re" to="4244a-0"/>
<connection from="6a6c3-0-re" to="4244a-0-re"/>
<connection from="9c667-2" to="4244a-0"/>
<connection from="9c667-2" to="4244a-0-re"/>
<connection from="9c667-2-re" to="4244a-0"/>
<connection from="9c667-2-re" to="4244a-0-re"/>
<connection from="4244a-0" to="6a6c3-0"/>
<connection from="4244a-0" to="9c667-2"/>
<connection from="4244a-0" to="6a6c3-0-re"/>
<connection from="4244a-0" to="9c667-2-re"/>
<connection from="4244a-0-re" to="6a6c3-0"/>
<connection from="4244a-0-re" to="9c667-2"/>
<connection from="4244a-0-re" to="6a6c3-0-re"/>
<connection from="4244a-0-re" to="9c667-2-re"/>
<!-- Point b2984 ed86a26a-8d15-4277-b831-5838c3eb2984 -->
<connection from="3b7a6-0" to="4244a-0"/>
<connection from="3b7a6-0" to="4244a-0-re"/>
<connection from="3b7a6-0-re" to="4244a-0"/>
<connection from="3b7a6-0-re" to="4244a-0-re"/>
<connection from="3408b-0" to="4244a-0"/>
<connection from="3408b-0" to="4244a-0-re"/>
<connection from="3408b-0-re" to="4244a-0"/>
<connection from="3408b-0-re" to="4244a-0-re"/>
<connection from="4244a-0" to="3b7a6-0"/>
<connection from="4244a-0" to="3408b-0"/>
<connection from="4244a-0" to="3b7a6-0-re"/>
<connection from="4244a-0" to="3408b-0-re"/>
<connection from="4244a-0-re" to="3b7a6-0"/>
<connection from="4244a-0-re" to="3408b-0"/>
<connection from="4244a-0-re" to="3b7a6-0-re"/>
<connection from="4244a-0-re" to="3408b-0-re"/>
<!-- Point 76463 66b27b7d-337c-4f2f-947b-4f4e09a76463 -->
<connection from="3408b-2" to="02623-0"/>
<connection from="3408b-2" to="02623-0-re"/>
<connection from="3408b-2-re" to="02623-0"/>
<connection from="3408b-2-re" to="02623-0-re"/>
<connection from="f0498-0" to="02623-0"/>
<connection from="f0498-0" to="02623-0-re"/>
<connection from="f0498-0-re" to="02623-0"/>
<connection from="f0498-0-re" to="02623-0-re"/>
<connection from="02623-0" to="3408b-2"/>
<connection from="02623-0" to="f0498-0"/>
<connection from="02623-0" to="3408b-2-re"/>
<connection from="02623-0" to="f0498-0-re"/>
<connection from="02623-0-re" to="3408b-2"/>
<connection from="02623-0-re" to="f0498-0"/>
<connection from="02623-0-re" to="3408b-2-re"/>
<connection from="02623-0-re" to="f0498-0-re"/>
<!-- Point 4bc78 39dade2a-0c86-4467-a888-8d415344bc78 -->
<connection from="e7633-0" to="99ebb-0"/>
<connection from="e7633-0" to="99ebb-0-re"/>
<connection from="e7633-0-re" to="99ebb-0"/>
<connection from="e7633-0-re" to="99ebb-0-re"/>
<connection from="e0d47-14" to="99ebb-0"/>
<connection from="e0d47-14" to="99ebb-0-re"/>
<connection from="e0d47-14-re" to="99ebb-0"/>
<connection from="e0d47-14-re" to="99ebb-0-re"/>
<connection from="99ebb-0" to="e7633-0"/>
<connection from="99ebb-0" to="e0d47-14"/>
<connection from="99ebb-0" to="e7633-0-re"/>
<connection from="99ebb-0" to="e0d47-14-re"/>
<connection from="99ebb-0-re" to="e7633-0"/>
<connection from="99ebb-0-re" to="e0d47-14"/>
<connection from="99ebb-0-re" to="e7633-0-re"/>
<connection from="99ebb-0-re" to="e0d47-14-re"/>

<!-- Point 0c2fa cf3266a7-2427-4689-a94f-7662c410c2fa -->
<connection from="01b6f-3" to="3b4f5-0"/>
<connection from="01b6f-3" to="3b4f5-0-re"/>
<connection from="01b6f-3-re" to="3b4f5-0"/>
<connection from="01b6f-3-re" to="3b4f5-0-re"/>
<connection from="41f1e-0" to="3b4f5-0"/>
<connection from="41f1e-0" to="3b4f5-0-re"/>
<connection from="41f1e-0-re" to="3b4f5-0"/>
<connection from="41f1e-0-re" to="3b4f5-0-re"/>
<connection from="3b4f5-0" to="01b6f-3"/>
<connection from="3b4f5-0" to="41f1e-0"/>
<connection from="3b4f5-0" to="01b6f-3-re"/>
<connection from="3b4f5-0" to="41f1e-0-re"/>
<connection from="3b4f5-0-re" to="01b6f-3"/>
<connection from="3b4f5-0-re" to="41f1e-0"/>
<connection from="3b4f5-0-re" to="01b6f-3-re"/>
<connection from="3b4f5-0-re" to="41f1e-0-re"/>

<!-- Point b3ba2 5fa2430b-aa19-4fc9-bd04-318160db3ba2 -->
<connection from="3b4f5-2" to="84d33-0"/>
<connection from="3b4f5-2" to="84d33-0-re"/>
<connection from="3b4f5-2-re" to="84d33-0"/>
<connection from="3b4f5-2-re" to="84d33-0-re"/>
<connection from="4a912-0" to="84d33-0"/>
<connection from="4a912-0" to="84d33-0-re"/>
<connection from="4a912-0-re" to="84d33-0"/>
<connection from="4a912-0-re" to="84d33-0-re"/>
<connection from="84d33-0" to="3b4f5-2"/>
<connection from="84d33-0" to="4a912-0"/>
<connection from="84d33-0" to="3b4f5-2-re"/>
<connection from="84d33-0" to="4a912-0-re"/>
<connection from="84d33-0-re" to="3b4f5-2"/>
<connection from="84d33-0-re" to="4a912-0"/>
<connection from="84d33-0-re" to="3b4f5-2-re"/>
<connection from="84d33-0-re" to="4a912-0-re"/>
<!-- Point 0e62a d829d0e6-1a25-42fe-aa13-4cd1c990e62a -->
<connection from="d29ca-0" to="251ca-0"/>
<connection from="d29ca-0" to="251ca-0-re"/>
<connection from="d29ca-0-re" to="251ca-0"/>
<connection from="d29ca-0-re" to="251ca-0-re"/>
<connection from="84d33-2" to="251ca-0"/>
<connection from="84d33-2" to="251ca-0-re"/>
<connection from="84d33-2-re" to="251ca-0"/>
<connection from="84d33-2-re" to="251ca-0-re"/>
<connection from="251ca-0" to="d29ca-0"/>
<connection from="251ca-0" to="84d33-2"/>
<connection from="251ca-0" to="d29ca-0-re"/>
<connection from="251ca-0" to="84d33-2-re"/>
<connection from="251ca-0-re" to="d29ca-0"/>
<connection from="251ca-0-re" to="84d33-2"/>
<connection from="251ca-0-re" to="d29ca-0-re"/>
<connection from="251ca-0-re" to="84d33-2-re"/>
<!-- Point f5572 7587bcb1-3a4d-467b-93b7-f133de6f5572 -->
<connection from="e3bde-0" to="251ca-0"/>
<connection from="e3bde-0" to="251ca-0-re"/>
<connection from="e3bde-0-re" to="251ca-0"/>
<connection from="e3bde-0-re" to="251ca-0-re"/>
<connection from="6c036-0" to="251ca-0"/>
<connection from="6c036-0" to="251ca-0-re"/>
<connection from="6c036-0-re" to="251ca-0"/>
<connection from="6c036-0-re" to="251ca-0-re"/>
<connection from="251ca-0" to="e3bde-0"/>
<connection from="251ca-0" to="6c036-0"/>
<connection from="251ca-0" to="e3bde-0-re"/>
<connection from="251ca-0" to="6c036-0-re"/>
<connection from="251ca-0-re" to="e3bde-0"/>
<connection from="251ca-0-re" to="6c036-0"/>
<connection from="251ca-0-re" to="e3bde-0-re"/>
<connection from="251ca-0-re" to="6c036-0-re"/>
<!-- Point fd57c d373eb23-e9aa-49a3-9678-006ae84fd57c -->
<connection from="f4322-0" to="ea493-0"/>
<connection from="f4322-0" to="ea493-0-re"/>
<connection from="f4322-0-re" to="ea493-0"/>
<connection from="f4322-0-re" to="ea493-0-re"/>
<connection from="e3bde-2" to="ea493-0"/>
<connection from="e3bde-2" to="ea493-0-re"/>
<connection from="e3bde-2-re" to="ea493-0"/>
<connection from="e3bde-2-re" to="ea493-0-re"/>
<connection from="ea493-0" to="f4322-0"/>
<connection from="ea493-0" to="e3bde-2"/>
<connection from="ea493-0" to="f4322-0-re"/>
<connection from="ea493-0" to="e3bde-2-re"/>
<connection from="ea493-0-re" to="f4322-0"/>
<connection from="ea493-0-re" to="e3bde-2"/>
<connection from="ea493-0-re" to="f4322-0-re"/>
<connection from="ea493-0-re" to="e3bde-2-re"/>
<!-- Point 0fff7 91c0bbb6-a659-47c6-b917-f4ae8680fff7 -->
<connection from="f1ac9-0" to="ea493-2"/>
<connection from="f1ac9-0" to="ea493-2-re"/>
<connection from="f1ac9-0-re" to="ea493-2"/>
<connection from="f1ac9-0-re" to="ea493-2-re"/>
<connection from="508ed-0" to="ea493-2"/>
<connection from="508ed-0" to="ea493-2-re"/>
<connection from="508ed-0-re" to="ea493-2"/>
<connection from="508ed-0-re" to="ea493-2-re"/>
<connection from="ea493-2" to="f1ac9-0"/>
<connection from="ea493-2" to="508ed-0"/>
<connection from="ea493-2" to="f1ac9-0-re"/>
<connection from="ea493-2" to="508ed-0-re"/>
<connection from="ea493-2-re" to="f1ac9-0"/>
<connection from="ea493-2-re" to="508ed-0"/>
<connection from="ea493-2-re" to="f1ac9-0-re"/>
<connection from="ea493-2-re" to="508ed-0-re"/>
<!-- Point 4523d 8f4c28b2-85bd-4da4-8c7d-6c04e714523d -->
<connection from="374e3-0" to="c4b3c-0"/>
<connection from="374e3-0" to="c4b3c-0-re"/>
<connection from="374e3-0-re" to="c4b3c-0"/>
<connection from="374e3-0-re" to="c4b3c-0-re"/>
<connection from="f1ac9-2" to="c4b3c-0"/>
<connection from="f1ac9-2" to="c4b3c-0-re"/>
<connection from="f1ac9-2-re" to="c4b3c-0"/>
<connection from="f1ac9-2-re" to="c4b3c-0-re"/>
<connection from="c4b3c-0" to="374e3-0"/>
<connection from="c4b3c-0" to="f1ac9-2"/>
<connection from="c4b3c-0" to="374e3-0-re"/>
<connection from="c4b3c-0" to="f1ac9-2-re"/>
<connection from="c4b3c-0-re" to="374e3-0"/>
<connection from="c4b3c-0-re" to="f1ac9-2"/>
<connection from="c4b3c-0-re" to="374e3-0-re"/>
<connection from="c4b3c-0-re" to="f1ac9-2-re"/>
<!-- Point d230f 1810a703-e0b5-499e-9ab4-530f002d230f -->
<connection from="c4b3c-2" to="a9220-0"/>
<connection from="c4b3c-2" to="a9220-0-re"/>
<connection from="c4b3c-2-re" to="a9220-0"/>
<connection from="c4b3c-2-re" to="a9220-0-re"/>
<connection from="e9c00-0" to="a9220-0"/>
<connection from="e9c00-0" to="a9220-0-re"/>
<connection from="e9c00-0-re" to="a9220-0"/>
<connection from="e9c00-0-re" to="a9220-0-re"/>
<connection from="a9220-0" to="c4b3c-2"/>
<connection from="a9220-0" to="e9c00-0"/>
<connection from="a9220-0" to="c4b3c-2-re"/>
<connection from="a9220-0" to="e9c00-0-re"/>
<connection from="a9220-0-re" to="c4b3c-2"/>
<connection from="a9220-0-re" to="e9c00-0"/>
<connection from="a9220-0-re" to="c4b3c-2-re"/>
<connection from="a9220-0-re" to="e9c00-0-re"/>
<!-- Point bc385 ac213b84-c239-46cb-9625-7cec7b9bc385 -->
<connection from="2d98e-0" to="eeb89-0"/>
<connection from="2d98e-0" to="eeb89-0-re"/>
<connection from="2d98e-0-re" to="eeb89-0"/>
<connection from="2d98e-0-re" to="eeb89-0-re"/>
<connection from="59c9c-0" to="eeb89-0"/>
<connection from="59c9c-0" to="eeb89-0-re"/>
<connection from="59c9c-0-re" to="eeb89-0"/>
<connection from="59c9c-0-re" to="eeb89-0-re"/>
<connection from="eeb89-0" to="2d98e-0"/>
<connection from="eeb89-0" to="59c9c-0"/>
<connection from="eeb89-0" to="2d98e-0-re"/>
<connection from="eeb89-0" to="59c9c-0-re"/>
<connection from="eeb89-0-re" to="2d98e-0"/>
<connection from="eeb89-0-re" to="59c9c-0"/>
<connection from="eeb89-0-re" to="2d98e-0-re"/>
<connection from="eeb89-0-re" to="59c9c-0-re"/>
<!-- Point 13caf 43efd8f9-dfa3-434d-ad0c-aca309b13caf -->
<connection from="2d98e-2" to="0757a-0"/>
<connection from="2d98e-2" to="0757a-0-re"/>
<connection from="2d98e-2-re" to="0757a-0"/>
<connection from="2d98e-2-re" to="0757a-0-re"/>
<connection from="a953d-0" to="0757a-0"/>
<connection from="a953d-0" to="0757a-0-re"/>
<connection from="a953d-0-re" to="0757a-0"/>
<connection from="a953d-0-re" to="0757a-0-re"/>
<connection from="0757a-0" to="2d98e-2"/>
<connection from="0757a-0" to="a953d-0"/>
<connection from="0757a-0" to="2d98e-2-re"/>
<connection from="0757a-0" to="a953d-0-re"/>
<connection from="0757a-0-re" to="2d98e-2"/>
<connection from="0757a-0-re" to="a953d-0"/>
<connection from="0757a-0-re" to="2d98e-2-re"/>
<connection from="0757a-0-re" to="a953d-0-re"/>
<!-- Point 5fcec 641d9065-ce54-48f7-844b-301219a5fcec -->
<connection from="3b7a6-2" to="0757a-0"/>
<connection from="3b7a6-2" to="0757a-0-re"/>
<connection from="3b7a6-2-re" to="0757a-0"/>
<connection from="3b7a6-2-re" to="0757a-0-re"/>
<connection from="a1234-0" to="0757a-0"/>
<connection from="a1234-0" to="0757a-0-re"/>
<connection from="a1234-0-re" to="0757a-0"/>
<connection from="a1234-0-re" to="0757a-0-re"/>
<connection from="0757a-0" to="3b7a6-2"/>
<connection from="0757a-0" to="a1234-0"/>
<connection from="0757a-0" to="3b7a6-2-re"/>
<connection from="0757a-0" to="a1234-0-re"/>
<connection from="0757a-0-re" to="3b7a6-2"/>
<connection from="0757a-0-re" to="a1234-0"/>
<connection from="0757a-0-re" to="3b7a6-2-re"/>
<connection from="0757a-0-re" to="a1234-0-re"/>
<!-- Point 08678 faf12498-a5cd-456b-ab88-fb7e45a08678 -->
<connection from="68726-0" to="a1234-0"/>
<connection from="68726-0" to="a1234-0-re"/>
<connection from="68726-0-re" to="a1234-0"/>
<connection from="68726-0-re" to="a1234-0-re"/>
<connection from="191d8-0" to="a1234-0"/>
<connection from="191d8-0" to="a1234-0-re"/>
<connection from="191d8-0-re" to="a1234-0"/>
<connection from="191d8-0-re" to="a1234-0-re"/>
<connection from="a1234-0" to="68726-0"/>
<connection from="a1234-0" to="191d8-0"/>
<connection from="a1234-0" to="68726-0-re"/>
<connection from="a1234-0" to="191d8-0-re"/>
<connection from="a1234-0-re" to="68726-0"/>
<connection from="a1234-0-re" to="191d8-0"/>
<connection from="a1234-0-re" to="68726-0-re"/>
<connection from="a1234-0-re" to="191d8-0-re"/>
<!-- Point a40c2 b0b81df4-12a7-4051-a266-1e5f456a40c2 -->
<connection from="f4322-2" to="1060f-0"/>
<connection from="f4322-2" to="1060f-0-re"/>
<connection from="f4322-2-re" to="1060f-0"/>
<connection from="f4322-2-re" to="1060f-0-re"/>
<connection from="1540d-0" to="1060f-0"/>
<connection from="1540d-0" to="1060f-0-re"/>
<connection from="1540d-0-re" to="1060f-0"/>
<connection from="1540d-0-re" to="1060f-0-re"/>
<connection from="1060f-0" to="f4322-2"/>
<connection from="1060f-0" to="1540d-0"/>
<connection from="1060f-0" to="f4322-2-re"/>
<connection from="1060f-0" to="1540d-0-re"/>
<connection from="1060f-0-re" to="f4322-2"/>
<connection from="1060f-0-re" to="1540d-0"/>
<connection from="1060f-0-re" to="f4322-2-re"/>
<connection from="1060f-0-re" to="1540d-0-re"/>
<!-- Point 4bf98 812c54c3-e009-4dc9-9db9-d5f0d074bf98 -->
<connection from="4afe3-0" to="1060f-0"/>
<connection from="4afe3-0" to="1060f-0-re"/>
<connection from="4afe3-0-re" to="1060f-0"/>
<connection from="4afe3-0-re" to="1060f-0-re"/>
<connection from="6c036-2" to="1060f-0"/>
<connection from="6c036-2" to="1060f-0-re"/>
<connection from="6c036-2-re" to="1060f-0"/>
<connection from="6c036-2-re" to="1060f-0-re"/>
<connection from="1060f-0" to="4afe3-0"/>
<connection from="1060f-0" to="6c036-2"/>
<connection from="1060f-0" to="4afe3-0-re"/>
<connection from="1060f-0" to="6c036-2-re"/>
<connection from="1060f-0-re" to="4afe3-0"/>
<connection from="1060f-0-re" to="6c036-2"/>
<connection from="1060f-0-re" to="4afe3-0-re"/>
<connection from="1060f-0-re" to="6c036-2-re"/>
<!-- Point 07f92 9af8bd42-2dd2-4bab-a2b0-f28126307f92 -->
<connection from="d54c2-0" to="d66b4-0"/>
<connection from="d54c2-0" to="d66b4-0-re"/>
<connection from="d54c2-0-re" to="d66b4-0"/>
<connection from="d54c2-0-re" to="d66b4-0-re"/>
<connection from="88063-0" to="d66b4-0"/>
<connection from="88063-0" to="d66b4-0-re"/>
<connection from="88063-0-re" to="d66b4-0"/>
<connection from="88063-0-re" to="d66b4-0-re"/>
<connection from="d66b4-0" to="d54c2-0"/>
<connection from="d66b4-0" to="88063-0"/>
<connection from="d66b4-0" to="d54c2-0-re"/>
<connection from="d66b4-0" to="88063-0-re"/>
<connection from="d66b4-0-re" to="d54c2-0"/>
<connection from="d66b4-0-re" to="88063-0"/>
<connection from="d66b4-0-re" to="d54c2-0-re"/>
<connection from="d66b4-0-re" to="88063-0-re"/>
<!-- Point b0dea 5666c51f-088d-4c47-9bcb-6b31553b0dea -->
<connection from="d54c2-2" to="0a855-0"/>
<connection from="d54c2-2" to="0a855-0-re"/>
<connection from="d54c2-2-re" to="0a855-0"/>
<connection from="d54c2-2-re" to="0a855-0-re"/>
<connection from="f514b-0" to="0a855-0"/>
<connection from="f514b-0" to="0a855-0-re"/>
<connection from="f514b-0-re" to="0a855-0"/>