<?xml version="1.0" encoding="UTF-8"?>

<!-- generated on 2023-05-11 10:02:35 by Eclipse SUMO netconvert Version 1.12.0
<configuration xmlns:xsi="http://www.w3.org/2001/XMLSchema-instance" xsi:noNamespaceSchemaLocation="http://sumo.dlr.de/xsd/netconvertConfiguration.xsd">

    <input>
        <node-files value="sumo-config/schwarze_pumpe_v1.nod.xml"/>
        <edge-files value="sumo-config/schwarze_pumpe_v1.edg.xml"/>
        <connection-files value="sumo-config/schwarze_pumpe_v1.con.xml"/>
    </input>

    <output>
        <output-file value="sumo-config/schwarze_pumpe_v1.net.xml"/>
    </output>

    <railway>
        <railway.topology.repair value="true"/>
        <railway.topology.repair.connect-straight value="true"/>
        <railway.topology.repair.stop-turn value="true"/>
        <railway.topology.all-bidi value="false"/>
    </railway>

    <report>
        <aggregate-warnings value="5"/>
    </report>

</configuration>
-->

<net version="1.9" junctionCornerDetail="5" limitTurnSpeed="5.50" xmlns:xsi="http://www.w3.org/2001/XMLSchema-instance" xsi:noNamespaceSchemaLocation="http://sumo.dlr.de/xsd/net_file.xsd">

    <location netOffset="2506174.81,-3459405.32" convBoundary="0.00,0.00,12719.19,11737.42" origBoundary="-2506174.81,3459405.32,-2493455.62,3471142.74" projParameter="!"/>

    <edge id=":00076_0" function="internal" bidi=":00076_3">
        <lane id=":00076_0_0" index="0" allow="rail rail_electric" speed="110.00" length="2.99" shape="4735.33,6173.98 4732.37,6174.36"/>
    </edge>
    <edge id=":00076_1" function="internal" bidi=":00076_2">
        <lane id=":00076_1_0" index="0" allow="rail rail_electric" speed="110.00" length="2.98" shape="4735.32,6173.91 4732.37,6174.36"/>
    </edge>
    <edge id=":00076_2" function="internal" bidi=":00076_1">
        <lane id=":00076_2_0" index="0" allow="rail rail_electric" speed="110.00" length="2.98" shape="4732.37,6174.36 4735.32,6173.91"/>
    </edge>
    <edge id=":00076_3" function="internal" bidi=":00076_0">
        <lane id=":00076_3_0" index="0" allow="rail rail_electric" speed="110.00" length="2.99" shape="4732.37,6174.36 4735.33,6173.98"/>
    </edge>
    <edge id=":0032a0ec-0f6a-4140-85ec-572ffe1dffb8-km-25-gegen_0" function="internal" bidi=":0032a0ec-0f6a-4140-85ec-572ffe1dffb8-km-25-gegen_1">
        <lane id=":0032a0ec-0f6a-4140-85ec-572ffe1dffb8-km-25-gegen_0_0" index="0" allow="rail rail_electric" speed="110.00" length="0.10" shape="3778.29,7207.50 3778.29,7207.50"/>
    </edge>
    <edge id=":0032a0ec-0f6a-4140-85ec-572ffe1dffb8-km-25-gegen_1" function="internal" bidi=":0032a0ec-0f6a-4140-85ec-572ffe1dffb8-km-25-gegen_0">
        <lane id=":0032a0ec-0f6a-4140-85ec-572ffe1dffb8-km-25-gegen_1_0" index="0" allow="rail rail_electric" speed="110.00" length="0.10" shape="3778.29,7207.50 3778.29,7207.50"/>
    </edge>
    <edge id=":011dc8a0-a1e5-4bc6-9fff-db45e2e3a866-km-259.073670491497-in_0" function="internal" bidi=":011dc8a0-a1e5-4bc6-9fff-db45e2e3a866-km-259.073670491497-in_1">
        <lane id=":011dc8a0-a1e5-4bc6-9fff-db45e2e3a866-km-259.073670491497-in_0_0" index="0" allow="rail rail_electric" speed="110.00" length="0.10" shape="4249.12,7740.35 4249.12,7740.35"/>
    </edge>
    <edge id=":011dc8a0-a1e5-4bc6-9fff-db45e2e3a866-km-259.073670491497-in_1" function="internal" bidi=":011dc8a0-a1e5-4bc6-9fff-db45e2e3a866-km-259.073670491497-in_0">
        <lane id=":011dc8a0-a1e5-4bc6-9fff-db45e2e3a866-km-259.073670491497-in_1_0" index="0" allow="rail rail_electric" speed="110.00" length="0.10" shape="4249.12,7740.35 4249.12,7740.35"/>
    </edge>
    <edge id=":023034b5-cc60-4054-b4bc-9286e1b40eb2-km-101.08615664205941-in_0" function="internal" bidi=":023034b5-cc60-4054-b4bc-9286e1b40eb2-km-101.08615664205941-in_1">
        <lane id=":023034b5-cc60-4054-b4bc-9286e1b40eb2-km-101.08615664205941-in_0_0" index="0" allow="rail rail_electric" speed="110.00" length="0.10" shape="4467.24,7400.67 4467.24,7400.67"/>
    </edge>
    <edge id=":023034b5-cc60-4054-b4bc-9286e1b40eb2-km-101.08615664205941-in_1" function="internal" bidi=":023034b5-cc60-4054-b4bc-9286e1b40eb2-km-101.08615664205941-in_0">
        <lane id=":023034b5-cc60-4054-b4bc-9286e1b40eb2-km-101.08615664205941-in_1_0" index="0" allow="rail rail_electric" speed="110.00" length="0.10" shape="4467.24,7400.67 4467.24,7400.67"/>
    </edge>
    <edge id=":023034b5-cc60-4054-b4bc-9286e1b40eb2-km-25-gegen_0" function="internal" bidi=":023034b5-cc60-4054-b4bc-9286e1b40eb2-km-25-gegen_1">
        <lane id=":023034b5-cc60-4054-b4bc-9286e1b40eb2-km-25-gegen_0_0" index="0" allow="rail rail_electric" speed="110.00" length="0.10" shape="4465.12,7324.61 4465.12,7324.61"/>
    </edge>
    <edge id=":023034b5-cc60-4054-b4bc-9286e1b40eb2-km-25-gegen_1" function="internal" bidi=":023034b5-cc60-4054-b4bc-9286e1b40eb2-km-25-gegen_0">
        <lane id=":023034b5-cc60-4054-b4bc-9286e1b40eb2-km-25-gegen_1_0" index="0" allow="rail rail_electric" speed="110.00" length="0.10" shape="4465.12,7324.61 4465.12,7324.61"/>
    </edge>
    <edge id=":02330_0" function="internal" bidi=":02330_3">
        <lane id=":02330_0_0" index="0" allow="rail rail_electric" speed="110.00" length="2.95" shape="4498.99,6215.48 4496.09,6216.06"/>
    </edge>
    <edge id=":02330_1" function="internal" bidi=":02330_2">
        <lane id=":02330_1_0" index="0" allow="rail rail_electric" speed="110.00" length="2.95" shape="4498.97,6215.42 4496.09,6216.06"/>
    </edge>
    <edge id=":02330_2" function="internal" bidi=":02330_1">
        <lane id=":02330_2_0" index="0" allow="rail rail_electric" speed="110.00" length="2.95" shape="4496.09,6216.06 4498.97,6215.42"/>
    </edge>
    <edge id=":02330_3" function="internal" bidi=":02330_0">
        <lane id=":02330_3_0" index="0" allow="rail rail_electric" speed="110.00" length="2.95" shape="4496.09,6216.06 4498.99,6215.48"/>
    </edge>
    <edge id=":024c7253-8622-4f9b-829a-6157f7995179-km-1000-gegen_0" function="internal" bidi=":024c7253-8622-4f9b-829a-6157f7995179-km-1000-gegen_1">
        <lane id=":024c7253-8622-4f9b-829a-6157f7995179-km-1000-gegen_0_0" index="0" allow="rail rail_electric" speed="3.97" length="2.86" shape="9448.56,3744.60 9448.18,3744.54 9448.02,3745.18 9447.93,3746.12 9447.75,3746.98"/>
    </edge>
    <edge id=":024c7253-8622-4f9b-829a-6157f7995179-km-1000-gegen_1" function="internal" bidi=":024c7253-8622-4f9b-829a-6157f7995179-km-1000-gegen_0">
        <lane id=":024c7253-8622-4f9b-829a-6157f7995179-km-1000-gegen_1_0" index="0" allow="rail rail_electric" speed="3.97" length="2.86" shape="9447.75,3746.98 9447.93,3746.12 9448.02,3745.18 9448.18,3744.54 9448.56,3744.60"/>
    </edge>
    <edge id=":024c7253-8622-4f9b-829a-6157f7995179-km-1000-in_0" function="internal" bidi=":024c7253-8622-4f9b-829a-6157f7995179-km-1000-in_1">
        <lane id=":024c7253-8622-4f9b-829a-6157f7995179-km-1000-in_0_0" index="0" allow="rail rail_electric" speed="3.97" length="2.86" shape="9449.51,3742.36 9449.33,3743.22 9449.24,3744.16 9449.07,3744.80 9448.70,3744.74"/>
    </edge>
    <edge id=":024c7253-8622-4f9b-829a-6157f7995179-km-1000-in_1" function="internal" bidi=":024c7253-8622-4f9b-829a-6157f7995179-km-1000-in_0">
        <lane id=":024c7253-8622-4f9b-829a-6157f7995179-km-1000-in_1_0" index="0" allow="rail rail_electric" speed="3.97" length="2.86" shape="9448.70,3744.74 9449.07,3744.80 9449.24,3744.16 9449.33,3743.22 9449.51,3742.36"/>
    </edge>
    <edge id=":024c7253-8622-4f9b-829a-6157f7995179-km-25-gegen_0" function="internal" bidi=":024c7253-8622-4f9b-829a-6157f7995179-km-25-gegen_1">
        <lane id=":024c7253-8622-4f9b-829a-6157f7995179-km-25-gegen_0_0" index="0" allow="rail rail_electric" speed="110.00" length="0.10" shape="9794.82,2833.20 9794.82,2833.20"/>
    </edge>
    <edge id=":024c7253-8622-4f9b-829a-6157f7995179-km-25-gegen_1" function="internal" bidi=":024c7253-8622-4f9b-829a-6157f7995179-km-25-gegen_0">
        <lane id=":024c7253-8622-4f9b-829a-6157f7995179-km-25-gegen_1_0" index="0" allow="rail rail_electric" speed="110.00" length="0.10" shape="9794.82,2833.20 9794.82,2833.20"/>
    </edge>
    <edge id=":024c7253-8622-4f9b-829a-6157f7995179-km-2904.2543286491227-in_0" function="internal" bidi=":024c7253-8622-4f9b-829a-6157f7995179-km-2904.2543286491227-in_1">
        <lane id=":024c7253-8622-4f9b-829a-6157f7995179-km-2904.2543286491227-in_0_0" index="0" allow="rail rail_electric" speed="110.00" length="0.10" shape="9143.87,5600.98 9143.87,5600.98"/>
    </edge>
    <edge id=":024c7253-8622-4f9b-829a-6157f7995179-km-2904.2543286491227-in_1" function="internal" bidi=":024c7253-8622-4f9b-829a-6157f7995179-km-2904.2543286491227-in_0">
        <lane id=":024c7253-8622-4f9b-829a-6157f7995179-km-2904.2543286491227-in_1_0" index="0" allow="rail rail_electric" speed="110.00" length="0.10" shape="9143.87,5600.98 9143.87,5600.98"/>
    </edge>
    <edge id=":025637c3-54a2-4797-87cb-2ace662baba0-km-122.23477199831026-in_0" function="internal" bidi=":025637c3-54a2-4797-87cb-2ace662baba0-km-122.23477199831026-in_1">
        <lane id=":025637c3-54a2-4797-87cb-2ace662baba0-km-122.23477199831026-in_0_0" index="0" allow="rail rail_electric" speed="110.00" length="0.10" shape="4546.23,7399.77 4546.23,7399.77"/>
    </edge>
    <edge id=":025637c3-54a2-4797-87cb-2ace662baba0-km-122.23477199831026-in_1" function="internal" bidi=":025637c3-54a2-4797-87cb-2ace662baba0-km-122.23477199831026-in_0">
        <lane id=":025637c3-54a2-4797-87cb-2ace662baba0-km-122.23477199831026-in_1_0" index="0" allow="rail rail_electric" speed="110.00" length="0.10" shape="4546.23,7399.77 4546.23,7399.77"/>
    </edge>
    <edge id=":0286d_0" function="internal" bidi=":0286d_3">
        <lane id=":0286d_0_0" index="0" allow="rail rail_electric" speed="110.00" length="2.80" shape="11610.49,1827.27 11608.83,1829.52"/>
    </edge>
    <edge id=":0286d_1" function="internal" bidi=":0286d_2">
        <lane id=":0286d_1_0" index="0" allow="rail rail_electric" speed="110.00" length="2.79" shape="11610.37,1827.20 11609.95,1827.91 11609.65,1828.40 11609.33,1828.86 11608.83,1829.52"/>
    </edge>
    <edge id=":0286d_2" function="internal" bidi=":0286d_1">
        <lane id=":0286d_2_0" index="0" allow="rail rail_electric" speed="110.00" length="2.79" shape="11608.83,1829.52 11609.33,1828.86 11609.65,1828.40 11609.95,1827.91 11610.37,1827.20"/>
    </edge>
    <edge id=":0286d_3" function="internal" bidi=":0286d_0">
        <lane id=":0286d_3_0" index="0" allow="rail rail_electric" speed="110.00" length="2.80" shape="11608.83,1829.52 11610.49,1827.27"/>
    </edge>
    <edge id=":034dbdc7-a255-4c2b-8d8b-7b94cf8d5b3a-km-25-gegen_0" function="internal" bidi=":034dbdc7-a255-4c2b-8d8b-7b94cf8d5b3a-km-25-gegen_1">
        <lane id=":034dbdc7-a255-4c2b-8d8b-7b94cf8d5b3a-km-25-gegen_0_0" index="0" allow="rail rail_electric" speed="110.00" length="0.10" shape="8975.24,5885.53 8975.24,5885.53"/>
    </edge>
    <edge id=":034dbdc7-a255-4c2b-8d8b-7b94cf8d5b3a-km-25-gegen_1" function="internal" bidi=":034dbdc7-a255-4c2b-8d8b-7b94cf8d5b3a-km-25-gegen_0">
        <lane id=":034dbdc7-a255-4c2b-8d8b-7b94cf8d5b3a-km-25-gegen_1_0" index="0" allow="rail rail_electric" speed="110.00" length="0.10" shape="8975.24,5885.53 8975.24,5885.53"/>
    </edge>
    <edge id=":0364a54b-6cc5-481a-b89b-2089fee17084-km-25-gegen_0" function="internal" bidi=":0364a54b-6cc5-481a-b89b-2089fee17084-km-25-gegen_1">
        <lane id=":0364a54b-6cc5-481a-b89b-2089fee17084-km-25-gegen_0_0" index="0" allow="rail rail_electric" speed="110.00" length="0.10" shape="9812.86,2786.57 9812.86,2786.57"/>
    </edge>
    <edge id=":0364a54b-6cc5-481a-b89b-2089fee17084-km-25-gegen_1" function="internal" bidi=":0364a54b-6cc5-481a-b89b-2089fee17084-km-25-gegen_0">
        <lane id=":0364a54b-6cc5-481a-b89b-2089fee17084-km-25-gegen_1_0" index="0" allow="rail rail_electric" speed="110.00" length="0.10" shape="9812.86,2786.57 9812.86,2786.57"/>
    </edge>
    <edge id=":0364a54b-6cc5-481a-b89b-2089fee17084-km-86.42029216853058-in_0" function="internal" bidi=":0364a54b-6cc5-481a-b89b-2089fee17084-km-86.42029216853058-in_1">
        <lane id=":0364a54b-6cc5-481a-b89b-2089fee17084-km-86.42029216853058-in_0_0" index="0" allow="rail rail_electric" speed="110.00" length="0.10" shape="9835.19,2729.35 9835.19,2729.35"/>
    </edge>
    <edge id=":0364a54b-6cc5-481a-b89b-2089fee17084-km-86.42029216853058-in_1" function="internal" bidi=":0364a54b-6cc5-481a-b89b-2089fee17084-km-86.42029216853058-in_0">
        <lane id=":0364a54b-6cc5-481a-b89b-2089fee17084-km-86.42029216853058-in_1_0" index="0" allow="rail rail_electric" speed="110.00" length="0.10" shape="9835.19,2729.35 9835.19,2729.35"/>
    </edge>
    <edge id=":037f0028-ef82-4926-9565-9f4e7e9d2af9-km-25-gegen_0" function="internal" bidi=":037f0028-ef82-4926-9565-9f4e7e9d2af9-km-25-gegen_1">
        <lane id=":037f0028-ef82-4926-9565-9f4e7e9d2af9-km-25-gegen_0_0" index="0" allow="rail rail_electric" speed="110.00" length="0.10" shape="4624.21,7683.51 4624.21,7683.51"/>
    </edge>
    <edge id=":037f0028-ef82-4926-9565-9f4e7e9d2af9-km-25-gegen_1" function="internal" bidi=":037f0028-ef82-4926-9565-9f4e7e9d2af9-km-25-gegen_0">
        <lane id=":037f0028-ef82-4926-9565-9f4e7e9d2af9-km-25-gegen_1_0" index="0" allow="rail rail_electric" speed="110.00" length="0.10" shape="4624.21,7683.51 4624.21,7683.51"/>
    </edge>
    <edge id=":037f0028-ef82-4926-9565-9f4e7e9d2af9-km-320.93585641896254-in_0" function="internal" bidi=":037f0028-ef82-4926-9565-9f4e7e9d2af9-km-320.93585641896254-in_1">
        <lane id=":037f0028-ef82-4926-9565-9f4e7e9d2af9-km-320.93585641896254-in_0_0" index="0" allow="rail rail_electric" speed="110.00" length="0.10" shape="4472.56,7450.23 4472.56,7450.23"/>
    </edge>
    <edge id=":037f0028-ef82-4926-9565-9f4e7e9d2af9-km-320.93585641896254-in_1" function="internal" bidi=":037f0028-ef82-4926-9565-9f4e7e9d2af9-km-320.93585641896254-in_0">
        <lane id=":037f0028-ef82-4926-9565-9f4e7e9d2af9-km-320.93585641896254-in_1_0" index="0" allow="rail rail_electric" speed="110.00" length="0.10" shape="4472.56,7450.23 4472.56,7450.23"/>
    </edge>
    <edge id=":03812ac9-8534-45b5-a694-f0ee129c9baf-km-1143.1311233571212-in_0" function="internal" bidi=":03812ac9-8534-45b5-a694-f0ee129c9baf-km-1143.1311233571212-in_1">
        <lane id=":03812ac9-8534-45b5-a694-f0ee129c9baf-km-1143.1311233571212-in_0_0" index="0" allow="rail rail_electric" speed="110.00" length="0.10" shape="6230.63,5856.27 6230.63,5856.27"/>
    </edge>
    <edge id=":03812ac9-8534-45b5-a694-f0ee129c9baf-km-1143.1311233571212-in_1" function="internal" bidi=":03812ac9-8534-45b5-a694-f0ee129c9baf-km-1143.1311233571212-in_0">
        <lane id=":03812ac9-8534-45b5-a694-f0ee129c9baf-km-1143.1311233571212-in_1_0" index="0" allow="rail rail_electric" speed="110.00" length="0.10" shape="6230.63,5856.27 6230.63,5856.27"/>
    </edge>
    <edge id=":03812ac9-8534-45b5-a694-f0ee129c9baf-km-25-gegen_0" function="internal" bidi=":03812ac9-8534-45b5-a694-f0ee129c9baf-km-25-gegen_1">
        <lane id=":03812ac9-8534-45b5-a694-f0ee129c9baf-km-25-gegen_0_0" index="0" allow="rail rail_electric" speed="110.00" length="0.10" shape="5135.38,6081.32 5135.38,6081.32"/>
    </edge>
    <edge id=":03812ac9-8534-45b5-a694-f0ee129c9baf-km-25-gegen_1" function="internal" bidi=":03812ac9-8534-45b5-a694-f0ee129c9baf-km-25-gegen_0">
        <lane id=":03812ac9-8534-45b5-a694-f0ee129c9baf-km-25-gegen_1_0" index="0" allow="rail rail_electric" speed="110.00" length="0.10" shape="5135.38,6081.32 5135.38,6081.32"/>
    </edge>
    <edge id=":039075f7-8f0c-41f8-8480-d8232864795a-km-139.30068102604326-in_0" function="internal" bidi=":039075f7-8f0c-41f8-8480-d8232864795a-km-139.30068102604326-in_1">
        <lane id=":039075f7-8f0c-41f8-8480-d8232864795a-km-139.30068102604326-in_0_0" index="0" allow="rail rail_electric" speed="110.00" length="0.10" shape="9043.69,6309.32 9043.69,6309.32"/>
    </edge>
    <edge id=":039075f7-8f0c-41f8-8480-d8232864795a-km-139.30068102604326-in_1" function="internal" bidi=":039075f7-8f0c-41f8-8480-d8232864795a-km-139.30068102604326-in_0">
        <lane id=":039075f7-8f0c-41f8-8480-d8232864795a-km-139.30068102604326-in_1_0" index="0" allow="rail rail_electric" speed="110.00" length="0.10" shape="9043.69,6309.32 9043.69,6309.32"/>
    </edge>
    <edge id=":039075f7-8f0c-41f8-8480-d8232864795a-km-25-gegen_0" function="internal" bidi=":039075f7-8f0c-41f8-8480-d8232864795a-km-25-gegen_1">
        <lane id=":039075f7-8f0c-41f8-8480-d8232864795a-km-25-gegen_0_0" index="0" allow="rail rail_electric" speed="110.00" length="0.10" shape="9045.20,6423.18 9045.20,6423.18"/>
    </edge>
    <edge id=":039075f7-8f0c-41f8-8480-d8232864795a-km-25-gegen_1" function="internal" bidi=":039075f7-8f0c-41f8-8480-d8232864795a-km-25-gegen_0">
        <lane id=":039075f7-8f0c-41f8-8480-d8232864795a-km-25-gegen_1_0" index="0" allow="rail rail_electric" speed="110.00" length="0.10" shape="9045.20,6423.18 9045.20,6423.18"/>
    </edge>
    <edge id=":03cf7_0" function="internal" bidi=":03cf7_3">
        <lane id=":03cf7_0_0" index="0" allow="rail rail_electric" speed="110.00" length="3.01" shape="10663.17,3473.03 10661.70,3475.66"/>
    </edge>
    <edge id=":03cf7_1" function="internal" bidi=":03cf7_2">
        <lane id=":03cf7_1_0" index="0" allow="rail rail_electric" speed="110.00" length="3.02" shape="10663.17,3473.03 10662.72,3473.81 10662.40,3474.33 10662.05,3474.84 10661.54,3475.57"/>
    </edge>
    <edge id=":03cf7_2" function="internal" bidi=":03cf7_1">
        <lane id=":03cf7_2_0" index="0" allow="rail rail_electric" speed="110.00" length="3.02" shape="10661.54,3475.57 10662.05,3474.84 10662.40,3474.33 10662.72,3473.81 10663.17,3473.03"/>
    </edge>
    <edge id=":03cf7_3" function="internal" bidi=":03cf7_0">
        <lane id=":03cf7_3_0" index="0" allow="rail rail_electric" speed="110.00" length="3.01" shape="10661.70,3475.66 10663.17,3473.03"/>
    </edge>
    <edge id=":0435e_0" function="internal" bidi=":0435e_1">
        <lane id=":0435e_0_0" index="0" allow="rail rail_electric" speed="110.00" length="2.88" shape="9126.79,5385.33 9126.77,5382.45"/>
    </edge>
    <edge id=":0435e_1" function="internal" bidi=":0435e_0">
        <lane id=":0435e_1_0" index="0" allow="rail rail_electric" speed="110.00" length="2.88" shape="9126.77,5382.45 9126.79,5385.33"/>
    </edge>
    <edge id=":0435e_2" function="internal" bidi=":0435e_3">
        <lane id=":0435e_2_0" index="0" allow="rail rail_electric" speed="110.00" length="2.89" shape="9126.77,5382.45 9126.66,5385.34"/>
    </edge>
    <edge id=":0435e_3" function="internal" bidi=":0435e_2">
        <lane id=":0435e_3_0" index="0" allow="rail rail_electric" speed="110.00" length="2.89" shape="9126.66,5385.34 9126.77,5382.45"/>
    </edge>
    <edge id=":0441b_0" function="internal">
        <lane id=":0441b_0_0" index="0" allow="rail rail_electric" speed="0.10" length="0.10" shape="3770.02,11622.23 3770.02,11622.23"/>
    </edge>
    <edge id=":044a2a80-c04c-4577-ad3d-f17a2d833eb5-km-1199.089100560847-in_0" function="internal" bidi=":044a2a80-c04c-4577-ad3d-f17a2d833eb5-km-1199.089100560847-in_1">
        <lane id=":044a2a80-c04c-4577-ad3d-f17a2d833eb5-km-1199.089100560847-in_0_0" index="0" allow="rail rail_electric" speed="110.00" length="0.10" shape="12170.31,767.71 12170.31,767.71"/>
    </edge>
    <edge id=":044a2a80-c04c-4577-ad3d-f17a2d833eb5-km-1199.089100560847-in_1" function="internal" bidi=":044a2a80-c04c-4577-ad3d-f17a2d833eb5-km-1199.089100560847-in_0">
        <lane id=":044a2a80-c04c-4577-ad3d-f17a2d833eb5-km-1199.089100560847-in_1_0" index="0" allow="rail rail_electric" speed="110.00" length="0.10" shape="12170.31,767.71 12170.31,767.71"/>
    </edge>
    <edge id=":044a2a80-c04c-4577-ad3d-f17a2d833eb5-km-25-gegen_0" function="internal" bidi=":044a2a80-c04c-4577-ad3d-f17a2d833eb5-km-25-gegen_1">
        <lane id=":044a2a80-c04c-4577-ad3d-f17a2d833eb5-km-25-gegen_0_0" index="0" allow="rail rail_electric" speed="110.00" length="0.10" shape="11599.27,1793.57 11599.27,1793.57"/>
    </edge>
    <edge id=":044a2a80-c04c-4577-ad3d-f17a2d833eb5-km-25-gegen_1" function="internal" bidi=":044a2a80-c04c-4577-ad3d-f17a2d833eb5-km-25-gegen_0">
        <lane id=":044a2a80-c04c-4577-ad3d-f17a2d833eb5-km-25-gegen_1_0" index="0" allow="rail rail_electric" speed="110.00" length="0.10" shape="11599.27,1793.57 11599.27,1793.57"/>
    </edge>
    <edge id=":049ff8ff-52c6-41e2-ad67-3832ee6a38c5-km-25-gegen_0" function="internal" bidi=":049ff8ff-52c6-41e2-ad67-3832ee6a38c5-km-25-gegen_1">
        <lane id=":049ff8ff-52c6-41e2-ad67-3832ee6a38c5-km-25-gegen_0_0" index="0" allow="rail rail_electric" speed="110.00" length="0.10" shape="3807.13,7363.20 3807.13,7363.20"/>
    </edge>
    <edge id=":049ff8ff-52c6-41e2-ad67-3832ee6a38c5-km-25-gegen_1" function="internal" bidi=":049ff8ff-52c6-41e2-ad67-3832ee6a38c5-km-25-gegen_0">
        <lane id=":049ff8ff-52c6-41e2-ad67-3832ee6a38c5-km-25-gegen_1_0" index="0" allow="rail rail_electric" speed="110.00" length="0.10" shape="3807.13,7363.20 3807.13,7363.20"/>
    </edge>
    <edge id=":049ff8ff-52c6-41e2-ad67-3832ee6a38c5-km-326.0833259732831-in_0" function="internal" bidi=":049ff8ff-52c6-41e2-ad67-3832ee6a38c5-km-326.0833259732831-in_1">
        <lane id=":049ff8ff-52c6-41e2-ad67-3832ee6a38c5-km-326.0833259732831-in_0_0" index="0" allow="rail rail_electric" speed="110.00" length="0.24" shape="3844.38,7661.03 3844.37,7660.96 3844.37,7660.91 3844.37,7660.86 3844.37,7660.79"/>
    </edge>
    <edge id=":049ff8ff-52c6-41e2-ad67-3832ee6a38c5-km-326.0833259732831-in_1" function="internal" bidi=":049ff8ff-52c6-41e2-ad67-3832ee6a38c5-km-326.0833259732831-in_0">
        <lane id=":049ff8ff-52c6-41e2-ad67-3832ee6a38c5-km-326.0833259732831-in_1_0" index="0" allow="rail rail_electric" speed="110.00" length="0.24" shape="3844.37,7660.79 3844.37,7660.86 3844.37,7660.91 3844.37,7660.96 3844.38,7661.03"/>
    </edge>
    <edge id=":04a333df-707f-47cb-8a70-07a5f207b39e-km-25-gegen_0" function="internal" bidi=":04a333df-707f-47cb-8a70-07a5f207b39e-km-25-gegen_1">
        <lane id=":04a333df-707f-47cb-8a70-07a5f207b39e-km-25-gegen_0_0" index="0" allow="rail rail_electric" speed="110.00" length="0.10" shape="4911.21,6153.00 4911.21,6153.00"/>
    </edge>
    <edge id=":04a333df-707f-47cb-8a70-07a5f207b39e-km-25-gegen_1" function="internal" bidi=":04a333df-707f-47cb-8a70-07a5f207b39e-km-25-gegen_0">
        <lane id=":04a333df-707f-47cb-8a70-07a5f207b39e-km-25-gegen_1_0" index="0" allow="rail rail_electric" speed="110.00" length="0.10" shape="4911.21,6153.00 4911.21,6153.00"/>
    </edge>
    <edge id=":04a333df-707f-47cb-8a70-07a5f207b39e-km-81.09078380485157-in_0" function="internal" bidi=":04a333df-707f-47cb-8a70-07a5f207b39e-km-81.09078380485157-in_1">
        <lane id=":04a333df-707f-47cb-8a70-07a5f207b39e-km-81.09078380485157-in_0_0" index="0" allow="rail rail_electric" speed="110.00" length="0.10" shape="4855.51,6159.57 4855.51,6159.57"/>
    </edge>
    <edge id=":04a333df-707f-47cb-8a70-07a5f207b39e-km-81.09078380485157-in_1" function="internal" bidi=":04a333df-707f-47cb-8a70-07a5f207b39e-km-81.09078380485157-in_0">
        <lane id=":04a333df-707f-47cb-8a70-07a5f207b39e-km-81.09078380485157-in_1_0" index="0" allow="rail rail_electric" speed="110.00" length="0.10" shape="4855.51,6159.57 4855.51,6159.57"/>
    </edge>
    <edge id=":0512792c-b7c9-4890-88f3-84512db84ddb-km-205.68031172448997-in_0" function="internal" bidi=":0512792c-b7c9-4890-88f3-84512db84ddb-km-205.68031172448997-in_1">
        <lane id=":0512792c-b7c9-4890-88f3-84512db84ddb-km-205.68031172448997-in_0_0" index="0" allow="rail rail_electric" speed="110.00" length="0.10" shape="7721.68,5609.68 7721.68,5609.68"/>
    </edge>
    <edge id=":0512792c-b7c9-4890-88f3-84512db84ddb-km-205.68031172448997-in_1" function="internal" bidi=":0512792c-b7c9-4890-88f3-84512db84ddb-km-205.68031172448997-in_0">
        <lane id=":0512792c-b7c9-4890-88f3-84512db84ddb-km-205.68031172448997-in_1_0" index="0" allow="rail rail_electric" speed="110.00" length="0.10" shape="7721.68,5609.68 7721.68,5609.68"/>
    </edge>
    <edge id=":0547fa78-aeab-4c1f-aa9a-b89985f21ed9-km-152.73211692197054-in_0" function="internal" bidi=":0547fa78-aeab-4c1f-aa9a-b89985f21ed9-km-152.73211692197054-in_1">
        <lane id=":0547fa78-aeab-4c1f-aa9a-b89985f21ed9-km-152.73211692197054-in_0_0" index="0" allow="rail rail_electric" speed="110.00" length="0.10" shape="3256.50,8170.23 3256.50,8170.23"/>
    </edge>
    <edge id=":0547fa78-aeab-4c1f-aa9a-b89985f21ed9-km-152.73211692197054-in_1" function="internal" bidi=":0547fa78-aeab-4c1f-aa9a-b89985f21ed9-km-152.73211692197054-in_0">
        <lane id=":0547fa78-aeab-4c1f-aa9a-b89985f21ed9-km-152.73211692197054-in_1_0" index="0" allow="rail rail_electric" speed="110.00" length="0.10" shape="3256.50,8170.23 3256.50,8170.23"/>
    </edge>
    <edge id=":0547fa78-aeab-4c1f-aa9a-b89985f21ed9-km-25-gegen_0" function="internal" bidi=":0547fa78-aeab-4c1f-aa9a-b89985f21ed9-km-25-gegen_1">
        <lane id=":0547fa78-aeab-4c1f-aa9a-b89985f21ed9-km-25-gegen_0_0" index="0" allow="rail rail_electric" speed="110.00" length="0.10" shape="3380.68,8140.42 3380.68,8140.42"/>
    </edge>
    <edge id=":0547fa78-aeab-4c1f-aa9a-b89985f21ed9-km-25-gegen_1" function="internal" bidi=":0547fa78-aeab-4c1f-aa9a-b89985f21ed9-km-25-gegen_0">
        <lane id=":0547fa78-aeab-4c1f-aa9a-b89985f21ed9-km-25-gegen_1_0" index="0" allow="rail rail_electric" speed="110.00" length="0.10" shape="3380.68,8140.42 3380.68,8140.42"/>
    </edge>
    <edge id=":0595b_0" function="internal" bidi=":0595b_3">
        <lane id=":0595b_0_0" index="0" allow="rail rail_electric" speed="110.00" length="2.97" shape="3013.27,6102.11 3010.56,6103.34"/>
    </edge>
    <edge id=":0595b_1" function="internal" bidi=":0595b_2">
        <lane id=":0595b_1_0" index="0" allow="rail rail_electric" speed="110.00" length="2.97" shape="3013.24,6102.06 3010.56,6103.34"/>
    </edge>
    <edge id=":0595b_2" function="internal" bidi=":0595b_1">
        <lane id=":0595b_2_0" index="0" allow="rail rail_electric" speed="110.00" length="2.97" shape="3010.56,6103.34 3013.24,6102.06"/>
    </edge>
    <edge id=":0595b_3" function="internal" bidi=":0595b_0">
        <lane id=":0595b_3_0" index="0" allow="rail rail_electric" speed="110.00" length="2.97" shape="3010.56,6103.34 3013.27,6102.11"/>
    </edge>
    <edge id=":05ceb04d-5fb9-4dc4-8cac-b3a9527d2e37-km-25-gegen_0" function="internal" bidi=":05ceb04d-5fb9-4dc4-8cac-b3a9527d2e37-km-25-gegen_1">
        <lane id=":05ceb04d-5fb9-4dc4-8cac-b3a9527d2e37-km-25-gegen_0_0" index="0" allow="rail rail_electric" speed="110.00" length="0.10" shape="5799.72,5725.71 5799.72,5725.71"/>
    </edge>
    <edge id=":05ceb04d-5fb9-4dc4-8cac-b3a9527d2e37-km-25-gegen_1" function="internal" bidi=":05ceb04d-5fb9-4dc4-8cac-b3a9527d2e37-km-25-gegen_0">
        <lane id=":05ceb04d-5fb9-4dc4-8cac-b3a9527d2e37-km-25-gegen_1_0" index="0" allow="rail rail_electric" speed="110.00" length="0.10" shape="5799.72,5725.71 5799.72,5725.71"/>
    </edge>
    <edge id=":05e82f69-5ef9-4c23-8e88-26f45100e1af-km-272.5487624676751-in_0" function="internal" bidi=":05e82f69-5ef9-4c23-8e88-26f45100e1af-km-272.5487624676751-in_1">
        <lane id=":05e82f69-5ef9-4c23-8e88-26f45100e1af-km-272.5487624676751-in_0_0" index="0" allow="rail rail_electric" speed="110.00" length="0.10" shape="4090.91,7180.69 4090.91,7180.69"/>
    </edge>
    <edge id=":05e82f69-5ef9-4c23-8e88-26f45100e1af-km-272.5487624676751-in_1" function="internal" bidi=":05e82f69-5ef9-4c23-8e88-26f45100e1af-km-272.5487624676751-in_0">
        <lane id=":05e82f69-5ef9-4c23-8e88-26f45100e1af-km-272.5487624676751-in_1_0" index="0" allow="rail rail_electric" speed="110.00" length="0.10" shape="4090.91,7180.69 4090.91,7180.69"/>
    </edge>
    <edge id=":061d91a5-8ac7-4674-8703-83ee3e7edaa3-km-238.52550007798908-in_0" function="internal" bidi=":061d91a5-8ac7-4674-8703-83ee3e7edaa3-km-238.52550007798908-in_1">
        <lane id=":061d91a5-8ac7-4674-8703-83ee3e7edaa3-km-238.52550007798908-in_0_0" index="0" allow="rail rail_electric" speed="110.00" length="0.10" shape="4396.23,7937.47 4396.23,7937.47"/>
    </edge>
    <edge id=":061d91a5-8ac7-4674-8703-83ee3e7edaa3-km-238.52550007798908-in_1" function="internal" bidi=":061d91a5-8ac7-4674-8703-83ee3e7edaa3-km-238.52550007798908-in_0">
        <lane id=":061d91a5-8ac7-4674-8703-83ee3e7edaa3-km-238.52550007798908-in_1_0" index="0" allow="rail rail_electric" speed="110.00" length="0.10" shape="4396.23,7937.47 4396.23,7937.47"/>
    </edge>
    <edge id=":061d91a5-8ac7-4674-8703-83ee3e7edaa3-km-25-gegen_0" function="internal" bidi=":061d91a5-8ac7-4674-8703-83ee3e7edaa3-km-25-gegen_1">
        <lane id=":061d91a5-8ac7-4674-8703-83ee3e7edaa3-km-25-gegen_0_0" index="0" allow="rail rail_electric" speed="110.00" length="0.10" shape="4187.95,7984.47 4187.95,7984.47"/>
    </edge>
    <edge id=":061d91a5-8ac7-4674-8703-83ee3e7edaa3-km-25-gegen_1" function="internal" bidi=":061d91a5-8ac7-4674-8703-83ee3e7edaa3-km-25-gegen_0">
        <lane id=":061d91a5-8ac7-4674-8703-83ee3e7edaa3-km-25-gegen_1_0" index="0" allow="rail rail_electric" speed="110.00" length="0.10" shape="4187.95,7984.47 4187.95,7984.47"/>
    </edge>
    <edge id=":062a6_0" function="internal" bidi=":062a6_3">
        <lane id=":062a6_0_0" index="0" allow="rail rail_electric" speed="110.00" length="2.83" shape="4672.14,11562.49 4671.81,11561.71 4671.57,11561.19 4671.31,11560.68 4670.91,11559.94"/>
    </edge>
    <edge id=":062a6_1" function="internal" bidi=":062a6_2">
        <lane id=":062a6_1_0" index="0" allow="rail rail_electric" speed="110.00" length="2.84" shape="4672.14,11562.49 4671.04,11559.87"/>
    </edge>
    <edge id=":062a6_2" function="internal" bidi=":062a6_1">
        <lane id=":062a6_2_0" index="0" allow="rail rail_electric" speed="110.00" length="2.84" shape="4671.04,11559.87 4672.14,11562.49"/>
    </edge>