<connections>
<!-- Point 127d4 efd6d80a-796e-4a8f-9574-167bfa3127d4 -->
<connection from="c65fc-0" to="47db8-0"/>
<connection from="c65fc-0" to="47db8-0-re"/>
<connection from="c65fc-0-re" to="47db8-0"/>
<connection from="c65fc-0-re" to="47db8-0-re"/>
<connection from="94572-0" to="47db8-0"/>
<connection from="94572-0" to="47db8-0-re"/>
<connection from="94572-0-re" to="47db8-0"/>
<connection from="94572-0-re" to="47db8-0-re"/>
<connection from="47db8-0" to="c65fc-0"/>
<connection from="47db8-0" to="94572-0"/>
<connection from="47db8-0" to="c65fc-0-re"/>
<connection from="47db8-0" to="94572-0-re"/>
<connection from="47db8-0-re" to="c65fc-0"/>
<connection from="47db8-0-re" to="94572-0"/>
<connection from="47db8-0-re" to="c65fc-0-re"/>
<connection from="47db8-0-re" to="94572-0-re"/>
<!-- Point d8bc3 b4a59690-8edd-4f4d-a3f6-53c76e2d8bc3 -->
<connection from="fa5b7-0" to="94572-2"/>
<connection from="fa5b7-0" to="94572-2-re"/>
<connection from="fa5b7-0-re" to="94572-2"/>
<connection from="fa5b7-0-re" to="94572-2-re"/>
<connection from="20905-0" to="94572-2"/>
<connection from="20905-0" to="94572-2-re"/>
<connection from="20905-0-re" to="94572-2"/>
<connection from="20905-0-re" to="94572-2-re"/>
<connection from="94572-2" to="fa5b7-0"/>
<connection from="94572-2" to="20905-0"/>
<connection from="94572-2" to="fa5b7-0-re"/>
<connection from="94572-2" to="20905-0-re"/>
<connection from="94572-2-re" to="fa5b7-0"/>
<connection from="94572-2-re" to="20905-0"/>
<connection from="94572-2-re" to="fa5b7-0-re"/>
<connection from="94572-2-re" to="20905-0-re"/>
<!-- Point c09ce 46d76420-4526-4198-882d-24b144ec09ce -->
<connection from="3f3e6-0" to="4d341-0"/>
<connection from="3f3e6-0" to="4d341-0-re"/>
<connection from="3f3e6-0-re" to="4d341-0"/>
<connection from="3f3e6-0-re" to="4d341-0-re"/>
<connection from="fa5b7-2" to="4d341-0"/>
<connection from="fa5b7-2" to="4d341-0-re"/>
<connection from="fa5b7-2-re" to="4d341-0"/>
<connection from="fa5b7-2-re" to="4d341-0-re"/>
<connection from="4d341-0" to="3f3e6-0"/>
<connection from="4d341-0" to="fa5b7-2"/>
<connection from="4d341-0" to="3f3e6-0-re"/>
<connection from="4d341-0" to="fa5b7-2-re"/>
<connection from="4d341-0-re" to="3f3e6-0"/>
<connection from="4d341-0-re" to="fa5b7-2"/>
<connection from="4d341-0-re" to="3f3e6-0-re"/>
<connection from="4d341-0-re" to="fa5b7-2-re"/>
<!-- Point cb700 0bdd2264-bb53-43b8-97d8-169cd67cb700 -->
<connection from="4d341-2" to="aa079-0"/>
<connection from="4d341-2" to="aa079-0-re"/>
<connection from="4d341-2-re" to="aa079-0"/>
<connection from="4d341-2-re" to="aa079-0-re"/>
<connection from="ef785-0" to="aa079-0"/>
<connection from="ef785-0" to="aa079-0-re"/>
<connection from="ef785-0-re" to="aa079-0"/>
<connection from="ef785-0-re" to="aa079-0-re"/>
<connection from="aa079-0" to="4d341-2"/>
<connection from="aa079-0" to="ef785-0"/>
<connection from="aa079-0" to="4d341-2-re"/>
<connection from="aa079-0" to="ef785-0-re"/>
<connection from="aa079-0-re" to="4d341-2"/>
<connection from="aa079-0-re" to="ef785-0"/>
<connection from="aa079-0-re" to="4d341-2-re"/>
<connection from="aa079-0-re" to="ef785-0-re"/>
<!-- Point 592b8 7331e128-3485-4984-bba1-4988832592b8 -->
<connection from="e60ae-0" to="efa7a-0"/>
<connection from="e60ae-0" to="efa7a-0-re"/>
<connection from="e60ae-0-re" to="efa7a-0"/>
<connection from="e60ae-0-re" to="efa7a-0-re"/>
<connection from="d6d0c-0" to="efa7a-0"/>
<connection from="d6d0c-0" to="efa7a-0-re"/>
<connection from="d6d0c-0-re" to="efa7a-0"/>
<connection from="d6d0c-0-re" to="efa7a-0-re"/>
<connection from="efa7a-0" to="e60ae-0"/>
<connection from="efa7a-0" to="d6d0c-0"/>
<connection from="efa7a-0" to="e60ae-0-re"/>
<connection from="efa7a-0" to="d6d0c-0-re"/>
<connection from="efa7a-0-re" to="e60ae-0"/>
<connection from="efa7a-0-re" to="d6d0c-0"/>
<connection from="efa7a-0-re" to="e60ae-0-re"/>
<connection from="efa7a-0-re" to="d6d0c-0-re"/>
<!-- Point 9f627 7843612b-51b2-4586-b758-a1291f49f627 -->
<connection from="440a4-0" to="b3385-0"/>
<connection from="440a4-0" to="b3385-0-re"/>
<connection from="440a4-0-re" to="b3385-0"/>
<connection from="440a4-0-re" to="b3385-0-re"/>
<connection from="d6d0c-2" to="b3385-0"/>
<connection from="d6d0c-2" to="b3385-0-re"/>
<connection from="d6d0c-2-re" to="b3385-0"/>
<connection from="d6d0c-2-re" to="b3385-0-re"/>
<connection from="b3385-0" to="440a4-0"/>
<connection from="b3385-0" to="d6d0c-2"/>
<connection from="b3385-0" to="440a4-0-re"/>
<connection from="b3385-0" to="d6d0c-2-re"/>
<connection from="b3385-0-re" to="440a4-0"/>
<connection from="b3385-0-re" to="d6d0c-2"/>
<connection from="b3385-0-re" to="440a4-0-re"/>
<connection from="b3385-0-re" to="d6d0c-2-re"/>
<!-- Point ace55 c35cf9b1-2236-45c5-b5c9-0f729aface55 -->
<connection from="be4f5-0" to="9321c-0"/>
<connection from="be4f5-0" to="9321c-0-re"/>
<connection from="be4f5-0-re" to="9321c-0"/>
<connection from="be4f5-0-re" to="9321c-0-re"/>
<connection from="fba8f-0" to="9321c-0"/>
<connection from="fba8f-0" to="9321c-0-re"/>
<connection from="fba8f-0-re" to="9321c-0"/>
<connection from="fba8f-0-re" to="9321c-0-re"/>
<connection from="9321c-0" to="be4f5-0"/>
<connection from="9321c-0" to="fba8f-0"/>
<connection from="9321c-0" to="be4f5-0-re"/>
<connection from="9321c-0" to="fba8f-0-re"/>
<connection from="9321c-0-re" to="be4f5-0"/>
<connection from="9321c-0-re" to="fba8f-0"/>
<connection from="9321c-0-re" to="be4f5-0-re"/>
<connection from="9321c-0-re" to="fba8f-0-re"/>
<!-- Point 6978b 5a52faef-cec4-45de-ace0-13cfbc66978b -->
<connection from="ce087-0" to="85174-0"/>
<connection from="ce087-0" to="85174-0-re"/>
<connection from="ce087-0-re" to="85174-0"/>
<connection from="ce087-0-re" to="85174-0-re"/>
<connection from="bef64-0" to="85174-0"/>
<connection from="bef64-0" to="85174-0-re"/>
<connection from="bef64-0-re" to="85174-0"/>
<connection from="bef64-0-re" to="85174-0-re"/>
<connection from="85174-0" to="ce087-0"/>
<connection from="85174-0" to="bef64-0"/>
<connection from="85174-0" to="ce087-0-re"/>
<connection from="85174-0" to="bef64-0-re"/>
<connection from="85174-0-re" to="ce087-0"/>
<connection from="85174-0-re" to="bef64-0"/>
<connection from="85174-0-re" to="ce087-0-re"/>
<connection from="85174-0-re" to="bef64-0-re"/>
<!-- Point 36b30 de659482-3ce8-4791-92c1-4c0dfc936b30 -->
<connection from="56bf2-0" to="bef64-0"/>
<connection from="56bf2-0" to="bef64-0-re"/>
<connection from="56bf2-0-re" to="bef64-0"/>
<connection from="56bf2-0-re" to="bef64-0-re"/>
<connection from="b5e37-0" to="bef64-0"/>
<connection from="b5e37-0" to="bef64-0-re"/>
<connection from="b5e37-0-re" to="bef64-0"/>
<connection from="b5e37-0-re" to="bef64-0-re"/>
<connection from="bef64-0" to="56bf2-0"/>
<connection from="bef64-0" to="b5e37-0"/>
<connection from="bef64-0" to="56bf2-0-re"/>
<connection from="bef64-0" to="b5e37-0-re"/>
<connection from="bef64-0-re" to="56bf2-0"/>
<connection from="bef64-0-re" to="b5e37-0"/>
<connection from="bef64-0-re" to="56bf2-0-re"/>
<connection from="bef64-0-re" to="b5e37-0-re"/>
<!-- Point fe93c de2e9d55-f634-4cf2-bc10-73daa1ffe93c -->
<connection from="3f7c5-0" to="3838e-0"/>
<connection from="3f7c5-0" to="3838e-0-re"/>
<connection from="3f7c5-0-re" to="3838e-0"/>
<connection from="3f7c5-0-re" to="3838e-0-re"/>
<connection from="b5e37-2" to="3838e-0"/>
<connection from="b5e37-2" to="3838e-0-re"/>
<connection from="b5e37-2-re" to="3838e-0"/>
<connection from="b5e37-2-re" to="3838e-0-re"/>
<connection from="3838e-0" to="3f7c5-0"/>
<connection from="3838e-0" to="b5e37-2"/>
<connection from="3838e-0" to="3f7c5-0-re"/>
<connection from="3838e-0" to="b5e37-2-re"/>
<connection from="3838e-0-re" to="3f7c5-0"/>
<connection from="3838e-0-re" to="b5e37-2"/>
<connection from="3838e-0-re" to="3f7c5-0-re"/>
<connection from="3838e-0-re" to="b5e37-2-re"/>
<!-- Point 8d5b9 dd684e69-5f0f-4e38-90b6-6e296a78d5b9 -->
<connection from="3838e-0" to="8c2ff-0"/>
<connection from="3838e-0" to="8c2ff-0-re"/>
<connection from="3838e-0-re" to="8c2ff-0"/>
<connection from="3838e-0-re" to="8c2ff-0-re"/>
<connection from="8a6bc-0" to="8c2ff-0"/>
<connection from="8a6bc-0" to="8c2ff-0-re"/>
<connection from="8a6bc-0-re" to="8c2ff-0"/>
<connection from="8a6bc-0-re" to="8c2ff-0-re"/>
<connection from="8c2ff-0" to="3838e-0"/>
<connection from="8c2ff-0" to="8a6bc-0"/>
<connection from="8c2ff-0" to="3838e-0-re"/>
<connection from="8c2ff-0" to="8a6bc-0-re"/>
<connection from="8c2ff-0-re" to="3838e-0"/>
<connection from="8c2ff-0-re" to="8a6bc-0"/>
<connection from="8c2ff-0-re" to="3838e-0-re"/>
<connection from="8c2ff-0-re" to="8a6bc-0-re"/>
<!-- Point bc9d4 61646ed0-0a13-4f36-aacb-33ea68bbc9d4 -->
<connection from="8c2ff-0" to="57b60-0"/>
<connection from="8c2ff-0" to="57b60-0-re"/>
<connection from="8c2ff-0-re" to="57b60-0"/>
<connection from="8c2ff-0-re" to="57b60-0-re"/>
<connection from="e683a-0" to="57b60-0"/>
<connection from="e683a-0" to="57b60-0-re"/>
<connection from="e683a-0-re" to="57b60-0"/>
<connection from="e683a-0-re" to="57b60-0-re"/>
<connection from="57b60-0" to="8c2ff-0"/>
<connection from="57b60-0" to="e683a-0"/>
<connection from="57b60-0" to="8c2ff-0-re"/>
<connection from="57b60-0" to="e683a-0-re"/>
<connection from="57b60-0-re" to="8c2ff-0"/>
<connection from="57b60-0-re" to="e683a-0"/>
<connection from="57b60-0-re" to="8c2ff-0-re"/>
<connection from="57b60-0-re" to="e683a-0-re"/>
<!-- Point f8565 b84da23e-e7ed-4d07-a307-8501de6f8565 -->
<connection from="71d1e-0" to="57b60-2"/>
<connection from="71d1e-0" to="57b60-2-re"/>
<connection from="71d1e-0-re" to="57b60-2"/>
<connection from="71d1e-0-re" to="57b60-2-re"/>
<connection from="3a84b-0" to="57b60-2"/>
<connection from="3a84b-0" to="57b60-2-re"/>
<connection from="3a84b-0-re" to="57b60-2"/>
<connection from="3a84b-0-re" to="57b60-2-re"/>
<connection from="57b60-2" to="71d1e-0"/>
<connection from="57b60-2" to="3a84b-0"/>
<connection from="57b60-2" to="71d1e-0-re"/>
<connection from="57b60-2" to="3a84b-0-re"/>
<connection from="57b60-2-re" to="71d1e-0"/>
<connection from="57b60-2-re" to="3a84b-0"/>
<connection from="57b60-2-re" to="71d1e-0-re"/>
<connection from="57b60-2-re" to="3a84b-0-re"/>
<!-- Point f7576 ce23a836-80df-4b12-9c66-b06df6cf7576 -->
<connection from="21276-0" to="4ff9f-0"/>
<connection from="21276-0" to="4ff9f-0-re"/>
<connection from="21276-0-re" to="4ff9f-0"/>
<connection from="21276-0-re" to="4ff9f-0-re"/>
<connection from="3a84b-2" to="4ff9f-0"/>
<connection from="3a84b-2" to="4ff9f-0-re"/>
<connection from="3a84b-2-re" to="4ff9f-0"/>
<connection from="3a84b-2-re" to="4ff9f-0-re"/>
<connection from="4ff9f-0" to="21276-0"/>
<connection from="4ff9f-0" to="3a84b-2"/>
<connection from="4ff9f-0" to="21276-0-re"/>
<connection from="4ff9f-0" to="3a84b-2-re"/>
<connection from="4ff9f-0-re" to="21276-0"/>
<connection from="4ff9f-0-re" to="3a84b-2"/>
<connection from="4ff9f-0-re" to="21276-0-re"/>
<connection from="4ff9f-0-re" to="3a84b-2-re"/>

<!-- Point bf26f 33c2180f-7be9-40fb-b063-639e962bf26f -->
<connection from="99505-0" to="ce448-0"/>
<connection from="99505-0" to="ce448-0-re"/>
<connection from="99505-0-re" to="ce448-0"/>
<connection from="99505-0-re" to="ce448-0-re"/>
<connection from="324a4-0" to="ce448-0"/>
<connection from="324a4-0" to="ce448-0-re"/>
<connection from="324a4-0-re" to="ce448-0"/>
<connection from="324a4-0-re" to="ce448-0-re"/>
<connection from="ce448-0" to="99505-0"/>
<connection from="ce448-0" to="324a4-0"/>
<connection from="ce448-0" to="99505-0-re"/>
<connection from="ce448-0" to="324a4-0-re"/>
<connection from="ce448-0-re" to="99505-0"/>
<connection from="ce448-0-re" to="324a4-0"/>
<connection from="ce448-0-re" to="99505-0-re"/>
<connection from="ce448-0-re" to="324a4-0-re"/>
<!-- Point 99fea 1cc54c6e-29f6-4c8d-b30c-7eb8cd999fea -->
<connection from="99505-2" to="d9745-0"/>
<connection from="99505-2" to="d9745-0-re"/>
<connection from="99505-2-re" to="d9745-0"/>
<connection from="99505-2-re" to="d9745-0-re"/>
<connection from="ac0d3-0" to="d9745-0"/>
<connection from="ac0d3-0" to="d9745-0-re"/>
<connection from="ac0d3-0-re" to="d9745-0"/>
<connection from="ac0d3-0-re" to="d9745-0-re"/>
<connection from="d9745-0" to="99505-2"/>
<connection from="d9745-0" to="ac0d3-0"/>
<connection from="d9745-0" to="99505-2-re"/>
<connection from="d9745-0" to="ac0d3-0-re"/>
<connection from="d9745-0-re" to="99505-2"/>
<connection from="d9745-0-re" to="ac0d3-0"/>
<connection from="d9745-0-re" to="99505-2-re"/>
<connection from="d9745-0-re" to="ac0d3-0-re"/>
<!-- Point 3b56c 12b7834d-b2ef-4bd0-80b5-18711f03b56c -->
<connection from="1664b-0" to="d9745-0"/>
<connection from="1664b-0" to="d9745-0-re"/>
<connection from="1664b-0-re" to="d9745-0"/>
<connection from="1664b-0-re" to="d9745-0-re"/>
<connection from="d0968-0" to="d9745-0"/>
<connection from="d0968-0" to="d9745-0-re"/>
<connection from="d0968-0-re" to="d9745-0"/>
<connection from="d0968-0-re" to="d9745-0-re"/>
<connection from="d9745-0" to="1664b-0"/>
<connection from="d9745-0" to="d0968-0"/>
<connection from="d9745-0" to="1664b-0-re"/>
<connection from="d9745-0" to="d0968-0-re"/>
<connection from="d9745-0-re" to="1664b-0"/>
<connection from="d9745-0-re" to="d0968-0"/>
<connection from="d9745-0-re" to="1664b-0-re"/>
<connection from="d9745-0-re" to="d0968-0-re"/>
<!-- Point 7e656 d146aa9c-1780-456b-a645-a0a4c527e656 -->
<connection from="91dda-0" to="c31b7-0"/>
<connection from="91dda-0" to="c31b7-0-re"/>
<connection from="91dda-0-re" to="c31b7-0"/>
<connection from="91dda-0-re" to="c31b7-0-re"/>
<connection from="671cc-0" to="c31b7-0"/>
<connection from="671cc-0" to="c31b7-0-re"/>
<connection from="671cc-0-re" to="c31b7-0"/>
<connection from="671cc-0-re" to="c31b7-0-re"/>
<connection from="c31b7-0" to="91dda-0"/>
<connection from="c31b7-0" to="671cc-0"/>
<connection from="c31b7-0" to="91dda-0-re"/>
<connection from="c31b7-0" to="671cc-0-re"/>
<connection from="c31b7-0-re" to="91dda-0"/>
<connection from="c31b7-0-re" to="671cc-0"/>
<connection from="c31b7-0-re" to="91dda-0-re"/>
<connection from="c31b7-0-re" to="671cc-0-re"/>
<!-- Point 29748 b5736137-b119-4739-8261-c54f69029748 -->
<connection from="2fa54-0" to="b3385-2"/>
<connection from="2fa54-0" to="b3385-2-re"/>
<connection from="2fa54-0-re" to="b3385-2"/>
<connection from="2fa54-0-re" to="b3385-2-re"/>
<connection from="b5a50-0" to="b3385-2"/>
<connection from="b5a50-0" to="b3385-2-re"/>
<connection from="b5a50-0-re" to="b3385-2"/>
<connection from="b5a50-0-re" to="b3385-2-re"/>
<connection from="b3385-2" to="2fa54-0"/>
<connection from="b3385-2" to="b5a50-0"/>
<connection from="b3385-2" to="2fa54-0-re"/>
<connection from="b3385-2" to="b5a50-0-re"/>
<connection from="b3385-2-re" to="2fa54-0"/>
<connection from="b3385-2-re" to="b5a50-0"/>
<connection from="b3385-2-re" to="2fa54-0-re"/>
<connection from="b3385-2-re" to="b5a50-0-re"/>
<!-- Point 2eb17 ee408d96-cb7e-45a6-9d6e-cc2af622eb17 -->
<connection from="96e8f-0" to="92ece-0"/>
<connection from="96e8f-0" to="92ece-0-re"/>
<connection from="96e8f-0-re" to="92ece-0"/>
<connection from="96e8f-0-re" to="92ece-0-re"/>
<connection from="2fa54-2" to="92ece-0"/>
<connection from="2fa54-2" to="92ece-0-re"/>
<connection from="2fa54-2-re" to="92ece-0"/>
<connection from="2fa54-2-re" to="92ece-0-re"/>
<connection from="92ece-0" to="96e8f-0"/>
<connection from="92ece-0" to="2fa54-2"/>
<connection from="92ece-0" to="96e8f-0-re"/>
<connection from="92ece-0" to="2fa54-2-re"/>
<connection from="92ece-0-re" to="96e8f-0"/>
<connection from="92ece-0-re" to="2fa54-2"/>
<connection from="92ece-0-re" to="96e8f-0-re"/>
<connection from="92ece-0-re" to="2fa54-2-re"/>
<!-- Point 84554 0da35c75-88cb-4461-a2cf-df7a6a984554 -->
<connection from="5e39f-0" to="92ece-0"/>
<connection from="5e39f-0" to="92ece-0-re"/>
<connection from="5e39f-0-re" to="92ece-0"/>
<connection from="5e39f-0-re" to="92ece-0-re"/>
<connection from="f1372-0" to="92ece-0"/>
<connection from="f1372-0" to="92ece-0-re"/>
<connection from="f1372-0-re" to="92ece-0"/>
<connection from="f1372-0-re" to="92ece-0-re"/>
<connection from="92ece-0" to="5e39f-0"/>
<connection from="92ece-0" to="f1372-0"/>
<connection from="92ece-0" to="5e39f-0-re"/>
<connection from="92ece-0" to="f1372-0-re"/>
<connection from="92ece-0-re" to="5e39f-0"/>
<connection from="92ece-0-re" to="f1372-0"/>
<connection from="92ece-0-re" to="5e39f-0-re"/>
<connection from="92ece-0-re" to="f1372-0-re"/>
<!-- Point 23bd0 5bd43724-52e7-40da-94a2-db4062423bd0 -->
<connection from="f1372-2" to="9321c-0"/>
<connection from="f1372-2" to="9321c-0-re"/>
<connection from="f1372-2-re" to="9321c-0"/>
<connection from="f1372-2-re" to="9321c-0-re"/>
<connection from="b0416-0" to="9321c-0"/>
<connection from="b0416-0" to="9321c-0-re"/>
<connection from="b0416-0-re" to="9321c-0"/>
<connection from="b0416-0-re" to="9321c-0-re"/>
<connection from="9321c-0" to="f1372-2"/>
<connection from="9321c-0" to="b0416-0"/>
<connection from="9321c-0" to="f1372-2-re"/>
<connection from="9321c-0" to="b0416-0-re"/>
<connection from="9321c-0-re" to="f1372-2"/>
<connection from="9321c-0-re" to="b0416-0"/>
<connection from="9321c-0-re" to="f1372-2-re"/>
<connection from="9321c-0-re" to="b0416-0-re"/>
<!-- Point 8d04e dd5fcdd2-bdea-4356-aded-6ead8088d04e -->
<connection from="59c03-0" to="01bfe-0"/>
<connection from="59c03-0" to="01bfe-0-re"/>
<connection from="59c03-0-re" to="01bfe-0"/>
<connection from="59c03-0-re" to="01bfe-0-re"/>
<connection from="c31b7-14" to="01bfe-0"/>
<connection from="c31b7-14" to="01bfe-0-re"/>
<connection from="c31b7-14-re" to="01bfe-0"/>
<connection from="c31b7-14-re" to="01bfe-0-re"/>
<connection from="01bfe-0" to="59c03-0"/>
<connection from="01bfe-0" to="c31b7-14"/>
<connection from="01bfe-0" to="59c03-0-re"/>
<connection from="01bfe-0" to="c31b7-14-re"/>
<connection from="01bfe-0-re" to="59c03-0"/>
<connection from="01bfe-0-re" to="c31b7-14"/>
<connection from="01bfe-0-re" to="59c03-0-re"/>
<connection from="01bfe-0-re" to="c31b7-14-re"/>

<!-- Point 9dfcb 8ed62fd4-f270-4380-883f-410cf0d9dfcb -->
<connection from="10ab8-3" to="a7636-0"/>
<connection from="10ab8-3" to="a7636-0-re"/>
<connection from="10ab8-3-re" to="a7636-0"/>
<connection from="10ab8-3-re" to="a7636-0-re"/>
<connection from="e076e-0" to="a7636-0"/>
<connection from="e076e-0" to="a7636-0-re"/>
<connection from="e076e-0-re" to="a7636-0"/>
<connection from="e076e-0-re" to="a7636-0-re"/>
<connection from="a7636-0" to="10ab8-3"/>
<connection from="a7636-0" to="e076e-0"/>
<connection from="a7636-0" to="10ab8-3-re"/>
<connection from="a7636-0" to="e076e-0-re"/>
<connection from="a7636-0-re" to="10ab8-3"/>
<connection from="a7636-0-re" to="e076e-0"/>
<connection from="a7636-0-re" to="10ab8-3-re"/>
<connection from="a7636-0-re" to="e076e-0-re"/>

<!-- Point 66973 2041652e-d87a-4ec7-ade2-aa0c4a766973 -->
<connection from="a7636-2" to="d700f-0"/>
<connection from="a7636-2" to="d700f-0-re"/>
<connection from="a7636-2-re" to="d700f-0"/>
<connection from="a7636-2-re" to="d700f-0-re"/>
<connection from="c904e-0" to="d700f-0"/>
<connection from="c904e-0" to="d700f-0-re"/>
<connection from="c904e-0-re" to="d700f-0"/>
<connection from="c904e-0-re" to="d700f-0-re"/>
<connection from="d700f-0" to="a7636-2"/>
<connection from="d700f-0" to="c904e-0"/>
<connection from="d700f-0" to="a7636-2-re"/>
<connection from="d700f-0" to="c904e-0-re"/>
<connection from="d700f-0-re" to="a7636-2"/>
<connection from="d700f-0-re" to="c904e-0"/>
<connection from="d700f-0-re" to="a7636-2-re"/>
<connection from="d700f-0-re" to="c904e-0-re"/>
<!-- Point 0ab26 d1ee10ae-0b48-42f9-9862-b2becf60ab26 -->
<connection from="ed595-0" to="53ebe-0"/>
<connection from="ed595-0" to="53ebe-0-re"/>
<connection from="ed595-0-re" to="53ebe-0"/>
<connection from="ed595-0-re" to="53ebe-0-re"/>
<connection from="d700f-2" to="53ebe-0"/>
<connection from="d700f-2" to="53ebe-0-re"/>
<connection from="d700f-2-re" to="53ebe-0"/>
<connection from="d700f-2-re" to="53ebe-0-re"/>
<connection from="53ebe-0" to="ed595-0"/>
<connection from="53ebe-0" to="d700f-2"/>
<connection from="53ebe-0" to="ed595-0-re"/>
<connection from="53ebe-0" to="d700f-2-re"/>
<connection from="53ebe-0-re" to="ed595-0"/>
<connection from="53ebe-0-re" to="d700f-2"/>
<connection from="53ebe-0-re" to="ed595-0-re"/>
<connection from="53ebe-0-re" to="d700f-2-re"/>
<!-- Point 2bfd5 392f0cf8-4911-409c-85fd-d62b69b2bfd5 -->
<connection from="3c680-0" to="53ebe-0"/>
<connection from="3c680-0" to="53ebe-0-re"/>
<connection from="3c680-0-re" to="53ebe-0"/>
<connection from="3c680-0-re" to="53ebe-0-re"/>
<connection from="1959c-0" to="53ebe-0"/>
<connection from="1959c-0" to="53ebe-0-re"/>
<connection from="1959c-0-re" to="53ebe-0"/>
<connection from="1959c-0-re" to="53ebe-0-re"/>
<connection from="53ebe-0" to="3c680-0"/>
<connection from="53ebe-0" to="1959c-0"/>
<connection from="53ebe-0" to="3c680-0-re"/>
<connection from="53ebe-0" to="1959c-0-re"/>
<connection from="53ebe-0-re" to="3c680-0"/>
<connection from="53ebe-0-re" to="1959c-0"/>
<connection from="53ebe-0-re" to="3c680-0-re"/>
<connection from="53ebe-0-re" to="1959c-0-re"/>
<!-- Point 7d516 9a2535e1-0b6c-44b1-b280-d6e7db17d516 -->
<connection from="98107-0" to="84ea5-0"/>
<connection from="98107-0" to="84ea5-0-re"/>
<connection from="98107-0-re" to="84ea5-0"/>
<connection from="98107-0-re" to="84ea5-0-re"/>
<connection from="3c680-2" to="84ea5-0"/>
<connection from="3c680-2" to="84ea5-0-re"/>
<connection from="3c680-2-re" to="84ea5-0"/>
<connection from="3c680-2-re" to="84ea5-0-re"/>
<connection from="84ea5-0" to="98107-0"/>
<connection from="84ea5-0" to="3c680-2"/>
<connection from="84ea5-0" to="98107-0-re"/>
<connection from="84ea5-0" to="3c680-2-re"/>
<connection from="84ea5-0-re" to="98107-0"/>
<connection from="84ea5-0-re" to="3c680-2"/>
<connection from="84ea5-0-re" to="98107-0-re"/>
<connection from="84ea5-0-re" to="3c680-2-re"/>
<!-- Point bbe5e 7184fca4-566a-4726-a387-0732f3abbe5e -->
<connection from="f4f78-0" to="84ea5-2"/>
<connection from="f4f78-0" to="84ea5-2-re"/>
<connection from="f4f78-0-re" to="84ea5-2"/>
<connection from="f4f78-0-re" to="84ea5-2-re"/>
<connection from="1d6bb-0" to="84ea5-2"/>
<connection from="1d6bb-0" to="84ea5-2-re"/>
<connection from="1d6bb-0-re" to="84ea5-2"/>
<connection from="1d6bb-0-re" to="84ea5-2-re"/>
<connection from="84ea5-2" to="f4f78-0"/>
<connection from="84ea5-2" to="1d6bb-0"/>
<connection from="84ea5-2" to="f4f78-0-re"/>
<connection from="84ea5-2" to="1d6bb-0-re"/>
<connection from="84ea5-2-re" to="f4f78-0"/>
<connection from="84ea5-2-re" to="1d6bb-0"/>
<connection from="84ea5-2-re" to="f4f78-0-re"/>
<connection from="84ea5-2-re" to="1d6bb-0-re"/>
<!-- Point c311b 6d369bb7-a7a6-49e6-b158-a5defcfc311b -->
<connection from="0a2cc-0" to="3330a-0"/>
<connection from="0a2cc-0" to="3330a-0-re"/>
<connection from="0a2cc-0-re" to="3330a-0"/>
<connection from="0a2cc-0-re" to="3330a-0-re"/>
<connection from="f4f78-2" to="3330a-0"/>
<connection from="f4f78-2" to="3330a-0-re"/>
<connection from="f4f78-2-re" to="3330a-0"/>
<connection from="f4f78-2-re" to="3330a-0-re"/>
<connection from="3330a-0" to="0a2cc-0"/>
<connection from="3330a-0" to="f4f78-2"/>
<connection from="3330a-0" to="0a2cc-0-re"/>
<connection from="3330a-0" to="f4f78-2-re"/>
<connection from="3330a-0-re" to="0a2cc-0"/>
<connection from="3330a-0-re" to="f4f78-2"/>
<connection from="3330a-0-re" to="0a2cc-0-re"/>
<connection from="3330a-0-re" to="f4f78-2-re"/>
<!-- Point 2c177 582b7cf8-21bd-4819-ac0f-909cf8d2c177 -->
<connection from="3330a-2" to="bff64-0"/>
<connection from="3330a-2" to="bff64-0-re"/>
<connection from="3330a-2-re" to="bff64-0"/>
<connection from="3330a-2-re" to="bff64-0-re"/>
<connection from="76fd3-0" to="bff64-0"/>
<connection from="76fd3-0" to="bff64-0-re"/>
<connection from="76fd3-0-re" to="bff64-0"/>
<connection from="76fd3-0-re" to="bff64-0-re"/>
<connection from="bff64-0" to="3330a-2"/>
<connection from="bff64-0" to="76fd3-0"/>
<connection from="bff64-0" to="3330a-2-re"/>
<connection from="bff64-0" to="76fd3-0-re"/>
<connection from="bff64-0-re" to="3330a-2"/>
<connection from="bff64-0-re" to="76fd3-0"/>
<connection from="bff64-0-re" to="3330a-2-re"/>
<connection from="bff64-0-re" to="76fd3-0-re"/>
<!-- Point 4661a 55c3f7ad-19b9-43dd-b66e-26d19ca4661a -->
<connection from="f7243-0" to="4cba0-0"/>
<connection from="f7243-0" to="4cba0-0-re"/>
<connection from="f7243-0-re" to="4cba0-0"/>
<connection from="f7243-0-re" to="4cba0-0-re"/>
<connection from="aea01-0" to="4cba0-0"/>
<connection from="aea01-0" to="4cba0-0-re"/>
<connection from="aea01-0-re" to="4cba0-0"/>
<connection from="aea01-0-re" to="4cba0-0-re"/>
<connection from="4cba0-0" to="f7243-0"/>
<connection from="4cba0-0" to="aea01-0"/>
<connection from="4cba0-0" to="f7243-0-re"/>
<connection from="4cba0-0" to="aea01-0-re"/>
<connection from="4cba0-0-re" to="f7243-0"/>
<connection from="4cba0-0-re" to="aea01-0"/>
<connection from="4cba0-0-re" to="f7243-0-re"/>
<connection from="4cba0-0-re" to="aea01-0-re"/>
<!-- Point 3df4b 51982141-6d98-433b-a32a-161922f3df4b -->
<connection from="f7243-2" to="a0ac3-0"/>
<connection from="f7243-2" to="a0ac3-0-re"/>
<connection from="f7243-2-re" to="a0ac3-0"/>
<connection from="f7243-2-re" to="a0ac3-0-re"/>
<connection from="60665-0" to="a0ac3-0"/>
<connection from="60665-0" to="a0ac3-0-re"/>
<connection from="60665-0-re" to="a0ac3-0"/>
<connection from="60665-0-re" to="a0ac3-0-re"/>
<connection from="a0ac3-0" to="f7243-2"/>
<connection from="a0ac3-0" to="60665-0"/>
<connection from="a0ac3-0" to="f7243-2-re"/>
<connection from="a0ac3-0" to="60665-0-re"/>
<connection from="a0ac3-0-re" to="f7243-2"/>
<connection from="a0ac3-0-re" to="60665-0"/>
<connection from="a0ac3-0-re" to="f7243-2-re"/>
<connection from="a0ac3-0-re" to="60665-0-re"/>
<!-- Point 8d7fe 9a7b63d8-0adc-4a93-b175-78ff6a78d7fe -->
<connection from="5e39f-2" to="a0ac3-0"/>
<connection from="5e39f-2" to="a0ac3-0-re"/>
<connection from="5e39f-2-re" to="a0ac3-0"/>
<connection from="5e39f-2-re" to="a0ac3-0-re"/>
<connection from="fc65c-0" to="a0ac3-0"/>
<connection from="fc65c-0" to="a0ac3-0-re"/>
<connection from="fc65c-0-re" to="a0ac3-0"/>
<connection from="fc65c-0-re" to="a0ac3-0-re"/>
<connection from="a0ac3-0" to="5e39f-2"/>
<connection from="a0ac3-0" to="fc65c-0"/>
<connection from="a0ac3-0" to="5e39f-2-re"/>
<connection from="a0ac3-0" to="fc65c-0-re"/>
<connection from="a0ac3-0-re" to="5e39f-2"/>
<connection from="a0ac3-0-re" to="fc65c-0"/>
<connection from="a0ac3-0-re" to="5e39f-2-re"/>
<connection from="a0ac3-0-re" to="fc65c-0-re"/>
<!-- Point 05cae 2906eb9b-6948-462f-8520-526b3e905cae -->
<connection from="03c05-0" to="fc65c-0"/>
<connection from="03c05-0" to="fc65c-0-re"/>
<connection from="03c05-0-re" to="fc65c-0"/>
<connection from="03c05-0-re" to="fc65c-0-re"/>
<connection from="31594-0" to="fc65c-0"/>
<connection from="31594-0" to="fc65c-0-re"/>
<connection from="31594-0-re" to="fc65c-0"/>
<connection from="31594-0-re" to="fc65c-0-re"/>
<connection from="fc65c-0" to="03c05-0"/>
<connection from="fc65c-0" to="31594-0"/>
<connection from="fc65c-0" to="03c05-0-re"/>
<connection from="fc65c-0" to="31594-0-re"/>
<connection from="fc65c-0-re" to="03c05-0"/>
<connection from="fc65c-0-re" to="31594-0"/>
<connection from="fc65c-0-re" to="03c05-0-re"/>
<connection from="fc65c-0-re" to="31594-0-re"/>
<!-- Point 20209 e6c58e2d-964b-47bf-9d1e-f3b9d6520209 -->
<connection from="98107-2" to="02603-0"/>
<connection from="98107-2" to="02603-0-re"/>
<connection from="98107-2-re" to="02603-0"/>
<connection from="98107-2-re" to="02603-0-re"/>
<connection from="a46ac-0" to="02603-0"/>
<connection from="a46ac-0" to="02603-0-re"/>
<connection from="a46ac-0-re" to="02603-0"/>
<connection from="a46ac-0-re" to="02603-0-re"/>
<connection from="02603-0" to="98107-2"/>
<connection from="02603-0" to="a46ac-0"/>
<connection from="02603-0" to="98107-2-re"/>
<connection from="02603-0" to="a46ac-0-re"/>
<connection from="02603-0-re" to="98107-2"/>
<connection from="02603-0-re" to="a46ac-0"/>
<connection from="02603-0-re" to="98107-2-re"/>
<connection from="02603-0-re" to="a46ac-0-re"/>
<!-- Point db2cf f1e6fab4-4986-4bb1-b817-32cb1e1db2cf -->
<connection from="4072b-0" to="02603-0"/>
<connection from="4072b-0" to="02603-0-re"/>
<connection from="4072b-0-re" to="02603-0"/>
<connection from="4072b-0-re" to="02603-0-re"/>
<connection from="1959c-2" to="02603-0"/>
<connection from="1959c-2" to="02603-0-re"/>
<connection from="1959c-2-re" to="02603-0"/>
<connection from="1959c-2-re" to="02603-0-re"/>
<connection from="02603-0" to="4072b-0"/>
<connection from="02603-0" to="1959c-2"/>
<connection from="02603-0" to="4072b-0-re"/>
<connection from="02603-0" to="1959c-2-re"/>
<connection from="02603-0-re" to="4072b-0"/>
<connection from="02603-0-re" to="1959c-2"/>
<connection from="02603-0-re" to="4072b-0-re"/>
<connection from="02603-0-re" to="1959c-2-re"/>
<!-- Point 963f7 92b8318e-0906-4fa8-b207-8512d7b963f7 -->
<connection from="c548b-0" to="3b501-0"/>
<connection from="c548b-0" to="3b501-0-re"/>
<connection from="c548b-0-re" to="3b501-0"/>
<connection from="c548b-0-re" to="3b501-0-re"/>
<connection from="9d398-0" to="3b501-0"/>
<connection from="9d398-0" to="3b501-0-re"/>
<connection from="9d398-0-re" to="3b501-0"/>
<connection from="9d398-0-re" to="3b501-0-re"/>
<connection from="3b501-0" to="c548b-0"/>
<connection from="3b501-0" to="9d398-0"/>
<connection from="3b501-0" to="c548b-0-re"/>
<connection from="3b501-0" to="9d398-0-re"/>
<connection from="3b501-0-re" to="c548b-0"/>
<connection from="3b501-0-re" to="9d398-0"/>
<connection from="3b501-0-re" to="c548b-0-re"/>
<connection from="3b501-0-re" to="9d398-0-re"/>
<!-- Point a9a2c da107228-4714-477d-a9a1-4f6933da9a2c -->
<connection from="c548b-2" to="51e96-0"/>
<connection from="c548b-2" to="51e96-0-re"/>
<connection from="c548b-2-re" to="51e96-0"/>
<connection from="c548b-2-re" to="51e96-0-re"/>
<connection from="e8a69-0" to="51e96-0"/>
<connection from="e8a69-0" to="51e96-0-re"/>
<connection from="e8a69-0-re" to="51e96-0"/>