<?xml version="1.0" encoding="UTF-8"?>
<routes xmlns:xsi="http://www.w3.org/2001/XMLSchema-instance" xsi:noNamespaceSchemaLocation="http://sumo.dlr.de/xsd/routes_file.xsd">
	<route edges="47db8-1 47db8-2 1664b-2-re 1664b-1-re" color="6,72,250" id="route_437E1A5F-4724-49E0-A7E5-331059E47DB8-KM-321.5762856547864-IN-CB0B710F-1D10-488B-AC94-E1517201664B-KM-25-GEGEN"/>
	<route edges="47db8-1 47db8-2 1c430-2-re 1c430-1-re" color="129,64,237" id="route_437E1A5F-4724-49E0-A7E5-331059E47DB8-KM-321.5762856547864-IN-FD98B20F-A889-4ED7-9C8E-5BD8D801C430-KM-25-GEGEN"/>
	<route edges="47db8-1-re 47db8-0-re c65fc-0 c65fc-1" color="55,145,37" id="route_437E1A5F-4724-49E0-A7E5-331059E47DB8-KM-25-GEGEN-CCA1602D-C065-48D1-B3BD-CDFC396C65FC-KM-852.2588211144425-IN"/>
	<route edges="47db8-1-re 47db8-0-re 94572-0 94572-1" color="22,9,224" id="route_437E1A5F-4724-49E0-A7E5-331059E47DB8-KM-25-GEGEN-1E031FAA-0230-45A7-939C-8B9D2AF94572-KM-165.5616561823125-IN"/>
	<route edges="94572-1 94572-2 fa5b7-0 fa5b7-1" color="227,230,119" id="route_1E031FAA-0230-45A7-939C-8B9D2AF94572-KM-165.5616561823125-IN-04E43495-73C3-4283-8FAD-2F886D5FA5B7-KM-788.1457216628645-IN"/>
	<route edges="94572-1 94572-2 20905-0 20905-1" color="98,46,69" id="route_1E031FAA-0230-45A7-939C-8B9D2AF94572-KM-165.5616561823125-IN-C681F4AB-1DA2-4261-8A22-D3E512720905-KM-238.52550007798908-IN"/>
	<route edges="94572-1-re 94572-0-re 47db8-0 47db8-1" color="183,92,254" id="route_1E031FAA-0230-45A7-939C-8B9D2AF94572-KM-25-GEGEN-437E1A5F-4724-49E0-A7E5-331059E47DB8-KM-321.5762856547864-IN"/>
	<route edges="c65fc-1-re c65fc-0-re 47db8-0 47db8-1" color="30,15,186" id="route_CCA1602D-C065-48D1-B3BD-CDFC396C65FC-KM-25-GEGEN-437E1A5F-4724-49E0-A7E5-331059E47DB8-KM-321.5762856547864-IN"/>
	<route edges="fa5b7-1 fa5b7-2 4d341-0 4d341-1" color="191,113,42" id="route_04E43495-73C3-4283-8FAD-2F886D5FA5B7-KM-788.1457216628645-IN-DE9E31BB-886B-4172-AAF8-E477D354D341-KM-169.7673894741766-IN"/>
	<route edges="fa5b7-1-re fa5b7-0-re 94572-2-re 94572-1-re" color="251,37,253" id="route_04E43495-73C3-4283-8FAD-2F886D5FA5B7-KM-25-GEGEN-1E031FAA-0230-45A7-939C-8B9D2AF94572-KM-25-GEGEN"/>
	<route edges="20905-1 20905-2 ed6e2-0 640e3-2-re 640e3-1-re" color="227,240,80" id="route_C681F4AB-1DA2-4261-8A22-D3E512720905-KM-238.52550007798908-IN-31EAAF29-C543-4FFC-BDCB-5E0DC64640E3-KM-25-GEGEN"/>
	<route edges="20905-1 20905-2 ed6e2-0 278b2-2-re 278b2-1-re" color="147,56,15" id="route_C681F4AB-1DA2-4261-8A22-D3E512720905-KM-238.52550007798908-IN-256A06FA-4858-4390-8921-B29CCF6278B2-KM-25-GEGEN"/>
	<route edges="20905-1-re 20905-0-re 94572-2-re 94572-1-re" color="214,95,170" id="route_C681F4AB-1DA2-4261-8A22-D3E512720905-KM-25-GEGEN-1E031FAA-0230-45A7-939C-8B9D2AF94572-KM-25-GEGEN"/>
	<route edges="4d341-1 4d341-2 aa079-0 aa079-1" color="105,65,141" id="route_DE9E31BB-886B-4172-AAF8-E477D354D341-KM-169.7673894741766-IN-566BD61A-4B3E-4FBF-8CFC-5140AC2AA079-KM-684.7733628877847-IN"/>
	<route edges="4d341-1-re 4d341-0-re fa5b7-2-re fa5b7-1-re" color="52,70,26" id="route_DE9E31BB-886B-4172-AAF8-E477D354D341-KM-25-GEGEN-04E43495-73C3-4283-8FAD-2F886D5FA5B7-KM-25-GEGEN"/>
	<route edges="3f3e6-1-re 3f3e6-0-re 4d341-0 4d341-1" color="147,15,117" id="route_54310183-1F30-4537-8D98-DB970183F3E6-KM-25-GEGEN-DE9E31BB-886B-4172-AAF8-E477D354D341-KM-169.7673894741766-IN"/>
	<route edges="aa079-1 aa079-2 07460-0-re bb246-0 bb246-1" color="0,10,50" id="route_566BD61A-4B3E-4FBF-8CFC-5140AC2AA079-KM-684.7733628877847-IN-B6BF2C3B-4BB1-4577-BDA5-1E571C5BB246-KM-1671.7895552905081-IN"/>
	<route edges="aa079-1 aa079-2 07460-0-re cea10-0 cea10-1" color="54,124,208" id="route_566BD61A-4B3E-4FBF-8CFC-5140AC2AA079-KM-684.7733628877847-IN-0C60B6F4-1A45-496E-84C0-00C0D6DCEA10-KM-1452.8979874733736-IN"/>
	<route edges="aa079-1 aa079-2 5ccb8-0 5ccb8-1" color="1,120,178" id="route_566BD61A-4B3E-4FBF-8CFC-5140AC2AA079-KM-684.7733628877847-IN-6220A7C8-1571-47BC-8AF7-E2B7F8A5CCB8-KM-268.8995167296298-IN"/>
	<route edges="aa079-1-re aa079-0-re 4d341-2-re 4d341-1-re" color="139,137,57" id="route_566BD61A-4B3E-4FBF-8CFC-5140AC2AA079-KM-25-GEGEN-DE9E31BB-886B-4172-AAF8-E477D354D341-KM-25-GEGEN"/>
	<route edges="ef785-1-re ef785-0-re aa079-0 aa079-1" color="209,80,30" id="route_5F3CE659-99B2-4321-A832-DE86FFAEF785-KM-25-GEGEN-566BD61A-4B3E-4FBF-8CFC-5140AC2AA079-KM-684.7733628877847-IN"/>
	<route edges="d6d0c-1 d6d0c-2 b3385-0 b3385-1" color="245,177,178" id="route_5BEBD9CC-887C-43C0-B715-7826DB6D6D0C-KM-254.45431792963808-IN-D9F63E43-D69E-44A1-935F-9AA9D8AB3385-KM-1908.0650690078241-IN"/>
	<route edges="d6d0c-1-re d6d0c-0-re efa7a-0 e0c02-2-re e0c02-1-re" color="220,126,18" id="route_5BEBD9CC-887C-43C0-B715-7826DB6D6D0C-KM-25-GEGEN-8B56076F-8FE7-444A-AF58-05B57D6E0C02-KM-25-GEGEN"/>
	<route edges="d6d0c-1-re d6d0c-0-re efa7a-0 bb246-2-re bb246-1-re" color="109,136,99" id="route_5BEBD9CC-887C-43C0-B715-7826DB6D6D0C-KM-25-GEGEN-B6BF2C3B-4BB1-4577-BDA5-1E571C5BB246-KM-25-GEGEN"/>
	<route edges="e60ae-1 e60ae-2 e60ae-3" color="107,146,82" id="route_C7239052-2617-42A0-BCE4-CFA20FCE60AE-KM-1000-IN-C7239052-2617-42A0-BCE4-CFA20FCE60AE-KM-2000-IN"/>
	<route edges="e60ae-3 e60ae-4 e60ae-5" color="168,243,212" id="route_C7239052-2617-42A0-BCE4-CFA20FCE60AE-KM-2000-IN-C7239052-2617-42A0-BCE4-CFA20FCE60AE-KM-3000-IN"/>
	<route edges="e60ae-5 e60ae-6 e60ae-7" color="45,117,117" id="route_C7239052-2617-42A0-BCE4-CFA20FCE60AE-KM-3000-IN-C7239052-2617-42A0-BCE4-CFA20FCE60AE-KM-4000-IN"/>
	<route edges="e60ae-7 e60ae-8 e60ae-9" color="218,98,25" id="route_C7239052-2617-42A0-BCE4-CFA20FCE60AE-KM-4000-IN-C7239052-2617-42A0-BCE4-CFA20FCE60AE-KM-5560.253303703657-IN"/>
	<route edges="e60ae-9 e60ae-10 1df47-5-re 1df47-4-re" color="250,137,121" id="route_C7239052-2617-42A0-BCE4-CFA20FCE60AE-KM-5560.253303703657-IN-434A6D9D-0B47-4821-BBEC-F0D7E1E1DF47-KM-1001-GEGEN"/>
	<route edges="e60ae-9 e60ae-10 3f1ed-2-re 3f1ed-1-re" color="201,102,207" id="route_C7239052-2617-42A0-BCE4-CFA20FCE60AE-KM-5560.253303703657-IN-941124B3-9A38-4FFF-882A-1FEB3413F1ED-KM-25-GEGEN"/>
	<route edges="e60ae-9-re e60ae-8-re e60ae-7-re" color="205,174,96" id="route_C7239052-2617-42A0-BCE4-CFA20FCE60AE-KM-4000-GEGEN-C7239052-2617-42A0-BCE4-CFA20FCE60AE-KM-3000-GEGEN"/>
	<route edges="e60ae-7-re e60ae-6-re e60ae-5-re" color="223,222,148" id="route_C7239052-2617-42A0-BCE4-CFA20FCE60AE-KM-3000-GEGEN-C7239052-2617-42A0-BCE4-CFA20FCE60AE-KM-2000-GEGEN"/>
	<route edges="e60ae-5-re e60ae-4-re e60ae-3-re" color="39,169,32" id="route_C7239052-2617-42A0-BCE4-CFA20FCE60AE-KM-2000-GEGEN-C7239052-2617-42A0-BCE4-CFA20FCE60AE-KM-1000-GEGEN"/>
	<route edges="e60ae-3-re e60ae-2-re e60ae-1-re" color="215,42,157" id="route_C7239052-2617-42A0-BCE4-CFA20FCE60AE-KM-1000-GEGEN-C7239052-2617-42A0-BCE4-CFA20FCE60AE-KM-25-GEGEN"/>
	<route edges="e60ae-1-re e60ae-0-re efa7a-0 e0c02-2-re e0c02-1-re" color="57,188,66" id="route_C7239052-2617-42A0-BCE4-CFA20FCE60AE-KM-25-GEGEN-8B56076F-8FE7-444A-AF58-05B57D6E0C02-KM-25-GEGEN"/>
	<route edges="e60ae-1-re e60ae-0-re efa7a-0 bb246-2-re bb246-1-re" color="61,71,50" id="route_C7239052-2617-42A0-BCE4-CFA20FCE60AE-KM-25-GEGEN-B6BF2C3B-4BB1-4577-BDA5-1E571C5BB246-KM-25-GEGEN"/>
	<route edges="440a4-1 440a4-2 a9c6d-0-re 7979f-2-re 7979f-1-re" color="16,77,54" id="route_009A9228-8871-46B5-9C52-AB90DD5440A4-KM-463.81731618508263-IN-D22E4C19-6961-4921-9EE8-6B4CAFB7979F-KM-25-GEGEN"/>
	<route edges="440a4-1 440a4-2 a9c6d-0-re cea10-2-re cea10-1-re" color="89,16,47" id="route_009A9228-8871-46B5-9C52-AB90DD5440A4-KM-463.81731618508263-IN-0C60B6F4-1A45-496E-84C0-00C0D6DCEA10-KM-25-GEGEN"/>
	<route edges="440a4-1-re 440a4-0-re b3385-0 b3385-1" color="128,225,243" id="route_009A9228-8871-46B5-9C52-AB90DD5440A4-KM-25-GEGEN-D9F63E43-D69E-44A1-935F-9AA9D8AB3385-KM-1908.0650690078241-IN"/>
	<route edges="b3385-1 b3385-2 2fa54-0 2fa54-1" color="81,196,14" id="route_D9F63E43-D69E-44A1-935F-9AA9D8AB3385-KM-1908.0650690078241-IN-B2E51B92-CAC8-4603-BAA7-B5DBE972FA54-KM-164.87032984724672-IN"/>
	<route edges="b3385-1 b3385-2 b5a50-0 ce8ea-0 96e8f-0-re 92ece-0 5e39f-0 5e39f-1" color="26,123,87" id="route_D9F63E43-D69E-44A1-935F-9AA9D8AB3385-KM-1908.0650690078241-IN-BE5DED0B-DB07-43EC-AF24-4B5EC7F5E39F-KM-181.66400492600528-IN"/>
	<route edges="b3385-1 b3385-2 b5a50-0 ce8ea-0 96e8f-0-re 92ece-0 f1372-0 f1372-1" color="244,49,70" id="route_D9F63E43-D69E-44A1-935F-9AA9D8AB3385-KM-1908.0650690078241-IN-651E5C8A-8241-4C56-A49C-F80644CF1372-KM-340.8087986779541-IN"/>
	<route edges="b3385-1 b3385-2 b5a50-0 ce8ea-0 cdfc9-0 cdfc9-1" color="85,218,253" id="route_D9F63E43-D69E-44A1-935F-9AA9D8AB3385-KM-1908.0650690078241-IN-24AD0279-C347-46C6-BA62-F0C7C90CDFC9-KM-631.7357322698663-IN"/>
	<route edges="b3385-1-re b3385-0-re 440a4-0 440a4-1" color="249,39,252" id="route_D9F63E43-D69E-44A1-935F-9AA9D8AB3385-KM-25-GEGEN-009A9228-8871-46B5-9C52-AB90DD5440A4-KM-463.81731618508263-IN"/>
	<route edges="b3385-1-re b3385-0-re d6d0c-2-re d6d0c-1-re" color="37,214,144" id="route_D9F63E43-D69E-44A1-935F-9AA9D8AB3385-KM-25-GEGEN-5BEBD9CC-887C-43C0-B715-7826DB6D6D0C-KM-25-GEGEN"/>
	<route edges="be4f5-1 be4f5-2 be4f5-3" color="77,69,82" id="route_4A51F16F-A912-48F2-9521-D0EFBBEBE4F5-KM-1000-IN-4A51F16F-A912-48F2-9521-D0EFBBEBE4F5-KM-2968.0134948223827-IN"/>
	<route edges="be4f5-3 be4f5-4 72e59-0 72e59-1" color="198,215,70" id="route_4A51F16F-A912-48F2-9521-D0EFBBEBE4F5-KM-2968.0134948223827-IN-56BF32B3-3EBF-4F13-B2B0-FAAB74C72E59-KM-1453.541904487744-IN"/>
	<route edges="be4f5-3-re be4f5-2-re be4f5-1-re" color="116,237,36" id="route_4A51F16F-A912-48F2-9521-D0EFBBEBE4F5-KM-1000-GEGEN-4A51F16F-A912-48F2-9521-D0EFBBEBE4F5-KM-25-GEGEN"/>
	<route edges="be4f5-1-re be4f5-0-re 9321c-0 f1372-2-re f1372-1-re" color="11,74,84" id="route_4A51F16F-A912-48F2-9521-D0EFBBEBE4F5-KM-25-GEGEN-651E5C8A-8241-4C56-A49C-F80644CF1372-KM-25-GEGEN"/>
	<route edges="be4f5-1-re be4f5-0-re 9321c-0 b0416-0 60665-0-re a0ac3-0 5e39f-2-re 5e39f-1-re" color="29,159,25" id="route_4A51F16F-A912-48F2-9521-D0EFBBEBE4F5-KM-25-GEGEN-BE5DED0B-DB07-43EC-AF24-4B5EC7F5E39F-KM-25-GEGEN"/>
	<route edges="be4f5-1-re be4f5-0-re 9321c-0 b0416-0 60665-0-re a0ac3-0 fc65c-0 03c05-0 03c05-1" color="97,32,227" id="route_4A51F16F-A912-48F2-9521-D0EFBBEBE4F5-KM-25-GEGEN-4755D0BD-5E1D-4604-BB25-D65AD1003C05-KM-893.3775715190525-IN"/>
	<route edges="be4f5-1-re be4f5-0-re 9321c-0 b0416-0 60665-0-re a0ac3-0 fc65c-0 31594-0 6b10f-2-re 6b10f-1-re" color="22,158,208" id="route_4A51F16F-A912-48F2-9521-D0EFBBEBE4F5-KM-25-GEGEN-D694BA9E-A29D-460C-B008-8FE38E56B10F-KM-25-GEGEN"/>
	<route edges="be4f5-1-re be4f5-0-re 9321c-0 b0416-0 60665-0-re a0ac3-0 fc65c-0 31594-0 154b1-0 8ccec-2-re 8ccec-1-re" color="146,128,2" id="route_4A51F16F-A912-48F2-9521-D0EFBBEBE4F5-KM-25-GEGEN-26C7BA87-18A4-4C93-94E8-03FD5008CCEC-KM-25-GEGEN"/>
	<route edges="ce087-1 ce087-2 2803b-2-re 2803b-1-re" color="72,44,182" id="route_E25868F3-1380-4C45-8890-03D7DE8CE087-KM-96.47358751756049-IN-6FED27BD-0AEB-4F19-8AE3-DC872CF2803B-KM-25-GEGEN"/>
	<route edges="ce087-1 ce087-2 31948-0 31948-1" color="89,25,167" id="route_E25868F3-1380-4C45-8890-03D7DE8CE087-KM-96.47358751756049-IN-B72F6E4D-B22A-4431-9A31-AF7ADA431948-KM-914.6100386400316-IN"/>
	<route edges="ce087-1-re ce087-0-re 85174-0 85174-1" color="76,238,162" id="route_E25868F3-1380-4C45-8890-03D7DE8CE087-KM-25-GEGEN-EA92C6AA-9F72-4726-8DA7-8C42DC585174-KM-196.352947606197-IN"/>
	<route edges="85174-1 85174-2 b0a8a-2-re b0a8a-1-re" color="20,217,100" id="route_EA92C6AA-9F72-4726-8DA7-8C42DC585174-KM-196.352947606197-IN-A3B1F9D6-E6D7-4582-9F41-CA0E763B0A8A-KM-25-GEGEN"/>
	<route edges="85174-1 85174-2 4cba0-2-re 4cba0-1-re" color="217,166,0" id="route_EA92C6AA-9F72-4726-8DA7-8C42DC585174-KM-196.352947606197-IN-AD816E49-4492-4906-AFC9-61E65B74CBA0-KM-25-GEGEN"/>
	<route edges="85174-1-re 85174-0-re ce087-0 ce087-1" color="148,21,195" id="route_EA92C6AA-9F72-4726-8DA7-8C42DC585174-KM-25-GEGEN-E25868F3-1380-4C45-8890-03D7DE8CE087-KM-96.47358751756049-IN"/>
	<route edges="85174-1-re 85174-0-re bef64-0 56bf2-0 3db47-0 3db47-1" color="49,58,38" id="route_EA92C6AA-9F72-4726-8DA7-8C42DC585174-KM-25-GEGEN-DEE651A2-020A-43B1-A895-1FCCC613DB47-KM-103.04561740430805-IN"/>
	<route edges="85174-1-re 85174-0-re bef64-0 56bf2-0 8a6bc-2-re 8a6bc-1-re" color="54,47,26" id="route_EA92C6AA-9F72-4726-8DA7-8C42DC585174-KM-25-GEGEN-7683393D-39C8-4DA0-AA87-7F6D6018A6BC-KM-25-GEGEN"/>
	<route edges="85174-1-re 85174-0-re bef64-0 b5e37-0 b5e37-1" color="121,236,126" id="route_EA92C6AA-9F72-4726-8DA7-8C42DC585174-KM-25-GEGEN-D5263838-9ADF-40FC-BA46-3F364F8B5E37-KM-1077.9134160895494-IN"/>
	<route edges="b5e37-1 b5e37-2 3838e-0 8c2ff-0 57b60-0 57b60-1" color="63,79,93" id="route_D5263838-9ADF-40FC-BA46-3F364F8B5E37-KM-1077.9134160895494-IN-6CD258AC-EFC6-4686-A454-9EAE77557B60-KM-455.0663329602517-IN"/>
	<route edges="b5e37-1-re b5e37-0-re bef64-0-re 85174-0 85174-1" color="174,46,163" id="route_D5263838-9ADF-40FC-BA46-3F364F8B5E37-KM-25-GEGEN-EA92C6AA-9F72-4726-8DA7-8C42DC585174-KM-196.352947606197-IN"/>
	<route edges="8a6bc-1 8a6bc-2 56bf2-0-re bef64-0-re 85174-0 85174-1" color="104,215,133" id="route_7683393D-39C8-4DA0-AA87-7F6D6018A6BC-KM-1049.2555641663412-IN-EA92C6AA-9F72-4726-8DA7-8C42DC585174-KM-196.352947606197-IN"/>
	<route edges="8a6bc-1-re 8a6bc-0-re 8c2ff-0 57b60-0 57b60-1" color="91,122,98" id="route_7683393D-39C8-4DA0-AA87-7F6D6018A6BC-KM-25-GEGEN-6CD258AC-EFC6-4686-A454-9EAE77557B60-KM-455.0663329602517-IN"/>
	<route edges="57b60-1 57b60-2 71d1e-0 71d1e-1" color="117,127,163" id="route_6CD258AC-EFC6-4686-A454-9EAE77557B60-KM-455.0663329602517-IN-0532E464-FDC8-43B5-BB70-B4D54F971D1E-KM-90.49227411094549-IN"/>
	<route edges="57b60-1 57b60-2 3a84b-0 3a84b-1" color="97,145,181" id="route_6CD258AC-EFC6-4686-A454-9EAE77557B60-KM-455.0663329602517-IN-58AF5CA5-FD47-4040-A8B5-2BA8AEC3A84B-KM-79.28485462572691-IN"/>
	<route edges="57b60-1-re 57b60-0-re 8c2ff-0-re 3838e-0-re 3f7c5-0 28596-2-re 28596-1-re" color="98,79,252" id="route_6CD258AC-EFC6-4686-A454-9EAE77557B60-KM-25-GEGEN-10BA146A-AE27-40B1-A819-6DA395F28596-KM-25-GEGEN"/>
	<route edges="57b60-1-re 57b60-0-re 8c2ff-0-re 3838e-0-re b5e37-2-re b5e37-1-re" color="137,172,163" id="route_6CD258AC-EFC6-4686-A454-9EAE77557B60-KM-25-GEGEN-D5263838-9ADF-40FC-BA46-3F364F8B5E37-KM-25-GEGEN"/>
	<route edges="57b60-1-re 57b60-0-re 8c2ff-0-re 8a6bc-0 8a6bc-1" color="166,147,101" id="route_6CD258AC-EFC6-4686-A454-9EAE77557B60-KM-25-GEGEN-7683393D-39C8-4DA0-AA87-7F6D6018A6BC-KM-1049.2555641663412-IN"/>
	<route edges="57b60-1-re 57b60-0-re e683a-0 e4a07-2-re e4a07-1-re" color="141,61,174" id="route_6CD258AC-EFC6-4686-A454-9EAE77557B60-KM-25-GEGEN-55386CD6-1A8D-46D5-A8E0-18B933EE4A07-KM-25-GEGEN"/>
	<route edges="57b60-1-re 57b60-0-re e683a-0 7b995-0 f9126-2-re f9126-1-re" color="75,47,248" id="route_6CD258AC-EFC6-4686-A454-9EAE77557B60-KM-25-GEGEN-A0FCA701-6634-42B0-8D6D-E49CA22F9126-KM-25-GEGEN"/>
	<route edges="57b60-1-re 57b60-0-re e683a-0 7b995-0 dffa5-0-re 26df4-0 31948-2-re 31948-1-re" color="34,191,94" id="route_6CD258AC-EFC6-4686-A454-9EAE77557B60-KM-25-GEGEN-B72F6E4D-B22A-4431-9A31-AF7ADA431948-KM-25-GEGEN"/>
	<route edges="57b60-1-re 57b60-0-re e683a-0 7b995-0 dffa5-0-re 26df4-0 580f0-2-re 580f0-1-re" color="243,22,247" id="route_6CD258AC-EFC6-4686-A454-9EAE77557B60-KM-25-GEGEN-A6B91E81-5741-4C70-8BE6-DF81514580F0-KM-25-GEGEN"/>
	<route edges="3a84b-1 3a84b-2 4ff9f-0 4ff9f-1" color="236,83,228" id="route_58AF5CA5-FD47-4040-A8B5-2BA8AEC3A84B-KM-79.28485462572691-IN-CD06A2A4-6311-4198-99DF-74E72174FF9F-KM-984.5542787261779-IN"/>
	<route edges="3a84b-1-re 3a84b-0-re 57b60-2-re 57b60-1-re" color="181,109,51" id="route_58AF5CA5-FD47-4040-A8B5-2BA8AEC3A84B-KM-25-GEGEN-6CD258AC-EFC6-4686-A454-9EAE77557B60-KM-25-GEGEN"/>
	<route edges="71d1e-1 71d1e-2 7d133-0 7d133-1" color="2,14,104" id="route_0532E464-FDC8-43B5-BB70-B4D54F971D1E-KM-90.49227411094549-IN-3DAA3502-D5B3-4D83-B4ED-63C20577D133-KM-973.5630285209269-IN"/>
	<route edges="71d1e-1-re 71d1e-0-re 57b60-2-re 57b60-1-re" color="242,70,27" id="route_0532E464-FDC8-43B5-BB70-B4D54F971D1E-KM-25-GEGEN-6CD258AC-EFC6-4686-A454-9EAE77557B60-KM-25-GEGEN"/>
	<route edges="4ff9f-1 4ff9f-2 c3c0c-0 c3c0c-1" color="75,80,140" id="route_CD06A2A4-6311-4198-99DF-74E72174FF9F-KM-984.5542787261779-IN-D00979C5-34CE-4093-A131-E1C55FCC3C0C-KM-81.24463641442591-IN"/>
	<route edges="4ff9f-1-re 4ff9f-0-re 21276-0 21276-1" color="173,187,26" id="route_CD06A2A4-6311-4198-99DF-74E72174FF9F-KM-25-GEGEN-99438F83-E709-460D-B8E7-93A0CAE21276-KM-101.34410270980774-IN"/>
	<route edges="4ff9f-1-re 4ff9f-0-re 3a84b-2-re 3a84b-1-re" color="108,80,9" id="route_CD06A2A4-6311-4198-99DF-74E72174FF9F-KM-25-GEGEN-58AF5CA5-FD47-4040-A8B5-2BA8AEC3A84B-KM-25-GEGEN"/>
	<route edges="21276-1 21276-2 ba298-0 ba298-1" color="125,238,147" id="route_99438F83-E709-460D-B8E7-93A0CAE21276-KM-101.34410270980774-IN-5B1D3B67-E17E-453B-B816-8D5A891BA298-KM-173.08552154511705-IN"/>
	<route edges="21276-1-re 21276-0-re 4ff9f-0 4ff9f-1" color="227,32,58" id="route_99438F83-E709-460D-B8E7-93A0CAE21276-KM-25-GEGEN-CD06A2A4-6311-4198-99DF-74E72174FF9F-KM-984.5542787261779-IN"/>
	<route edges="45982-0 45982-1 45982-2" color="92,89,52" id="route_AD8BDA7D-BE1D-4BA5-A82F-E4837D845982-KM-1-IN-AD8BDA7D-BE1D-4BA5-A82F-E4837D845982-KM-1246.872029481161-IN"/>
	<route edges="45982-2 45982-3 595a2-0 595a2-1" color="41,97,37" id="route_AD8BDA7D-BE1D-4BA5-A82F-E4837D845982-KM-1246.872029481161-IN-F1D570F0-9E1C-4004-A582-6770745595A2-KM-195.21324611100448-IN"/>
	<route edges="99505-1 99505-2 d9745-0 1664b-0 1664b-1" color="101,208,136" id="route_55B13274-992D-4BE6-A618-FC01D5A99505-KM-1615.0764173282626-IN-CB0B710F-1D10-488B-AC94-E1517201664B-KM-136.72691529462978-IN"/>
	<route edges="99505-1 99505-2 d9745-0 d0968-0 d0968-1" color="139,174,78" id="route_55B13274-992D-4BE6-A618-FC01D5A99505-KM-1615.0764173282626-IN-A96A6155-3AA4-4A66-AF89-CD450B6D0968-KM-937.1466831358305-IN"/>
	<route edges="99505-1-re 99505-0-re ce448-0 ad889-2-re ad889-1-re" color="128,46,96" id="route_55B13274-992D-4BE6-A618-FC01D5A99505-KM-25-GEGEN-32F712F3-7948-4407-87E0-37F0DD2AD889-KM-25-GEGEN"/>
	<route edges="99505-1-re 99505-0-re ce448-0 7cef1-0-re 052c1-2-re 052c1-1-re" color="85,117,229" id="route_55B13274-992D-4BE6-A618-FC01D5A99505-KM-25-GEGEN-E252EE98-FD7B-4C0E-B8FF-DC7B0E6052C1-KM-25-GEGEN"/>
	<route edges="324a4-1 324a4-2 324a4-3" color="34,7,13" id="route_4397F45A-62A1-4F8C-9384-F79FE93324A4-KM-1000-IN-4397F45A-62A1-4F8C-9384-F79FE93324A4-KM-2000-IN"/>
	<route edges="324a4-3 324a4-4 324a4-5" color="245,1,82" id="route_4397F45A-62A1-4F8C-9384-F79FE93324A4-KM-2000-IN-4397F45A-62A1-4F8C-9384-F79FE93324A4-KM-3170.0135601901507-IN"/>
	<route edges="324a4-5 324a4-6 9dcab-0 9dcab-1" color="246,60,6" id="route_4397F45A-62A1-4F8C-9384-F79FE93324A4-KM-3170.0135601901507-IN-57AE36F6-A0B2-4269-A3CE-AEAC0879DCAB-KM-1145.0075044737318-IN"/>
	<route edges="324a4-5 324a4-6 fee01-0 fee01-1" color="82,4,131" id="route_4397F45A-62A1-4F8C-9384-F79FE93324A4-KM-3170.0135601901507-IN-4D24F72F-D07A-4AEA-BBB9-156794AFEE01-KM-199.43697602843812-IN"/>
	<route edges="324a4-5-re 324a4-4-re 324a4-3-re" color="221,152,51" id="route_4397F45A-62A1-4F8C-9384-F79FE93324A4-KM-2000-GEGEN-4397F45A-62A1-4F8C-9384-F79FE93324A4-KM-1000-GEGEN"/>
	<route edges="324a4-3-re 324a4-2-re 324a4-1-re" color="154,87,139" id="route_4397F45A-62A1-4F8C-9384-F79FE93324A4-KM-1000-GEGEN-4397F45A-62A1-4F8C-9384-F79FE93324A4-KM-25-GEGEN"/>
	<route edges="324a4-1-re 324a4-0-re ce448-0 ad889-2-re ad889-1-re" color="68,64,211" id="route_4397F45A-62A1-4F8C-9384-F79FE93324A4-KM-25-GEGEN-32F712F3-7948-4407-87E0-37F0DD2AD889-KM-25-GEGEN"/>
	<route edges="324a4-1-re 324a4-0-re ce448-0 7cef1-0-re 052c1-2-re 052c1-1-re" color="0,226,27" id="route_4397F45A-62A1-4F8C-9384-F79FE93324A4-KM-25-GEGEN-E252EE98-FD7B-4C0E-B8FF-DC7B0E6052C1-KM-25-GEGEN"/>
	<route edges="ac0d3-1 ac0d3-2 a6dda-0 a6dda-1" color="29,231,199" id="route_4F5217A2-D747-4B21-B0CB-C6DEBDAAC0D3-KM-152.73211692197054-IN-C621F6AC-89AB-42A8-B6B0-9994E2CA6DDA-KM-1000-IN"/>
	<route edges="ac0d3-1-re ac0d3-0-re d9745-0 1664b-0 1664b-1" color="238,90,229" id="route_4F5217A2-D747-4B21-B0CB-C6DEBDAAC0D3-KM-25-GEGEN-CB0B710F-1D10-488B-AC94-E1517201664B-KM-136.72691529462978-IN"/>
	<route edges="ac0d3-1-re ac0d3-0-re d9745-0 d0968-0 d0968-1" color="61,46,49" id="route_4F5217A2-D747-4B21-B0CB-C6DEBDAAC0D3-KM-25-GEGEN-A96A6155-3AA4-4A66-AF89-CD450B6D0968-KM-937.1466831358305-IN"/>
	<route edges="d0968-1 d0968-2 ed6e2-0 640e3-2-re 640e3-1-re" color="71,148,157" id="route_A96A6155-3AA4-4A66-AF89-CD450B6D0968-KM-937.1466831358305-IN-31EAAF29-C543-4FFC-BDCB-5E0DC64640E3-KM-25-GEGEN"/>
	<route edges="d0968-1 d0968-2 ed6e2-0 278b2-2-re 278b2-1-re" color="25,94,222" id="route_A96A6155-3AA4-4A66-AF89-CD450B6D0968-KM-937.1466831358305-IN-256A06FA-4858-4390-8921-B29CCF6278B2-KM-25-GEGEN"/>
	<route edges="d0968-1-re d0968-0-re d9745-0-re 99505-2-re 99505-1-re" color="244,222,215" id="route_A96A6155-3AA4-4A66-AF89-CD450B6D0968-KM-25-GEGEN-55B13274-992D-4BE6-A618-FC01D5A99505-KM-25-GEGEN"/>
	<route edges="d0968-1-re d0968-0-re d9745-0-re ac0d3-0 ac0d3-1" color="185,221,74" id="route_A96A6155-3AA4-4A66-AF89-CD450B6D0968-KM-25-GEGEN-4F5217A2-D747-4B21-B0CB-C6DEBDAAC0D3-KM-152.73211692197054-IN"/>
	<route edges="1664b-1 1664b-2 47db8-2-re 47db8-1-re" color="65,100,88" id="route_CB0B710F-1D10-488B-AC94-E1517201664B-KM-136.72691529462978-IN-437E1A5F-4724-49E0-A7E5-331059E47DB8-KM-25-GEGEN"/>
	<route edges="1664b-1-re 1664b-0-re d9745-0-re 99505-2-re 99505-1-re" color="43,13,241" id="route_CB0B710F-1D10-488B-AC94-E1517201664B-KM-25-GEGEN-55B13274-992D-4BE6-A618-FC01D5A99505-KM-25-GEGEN"/>
	<route edges="1664b-1-re 1664b-0-re d9745-0-re ac0d3-0 ac0d3-1" color="76,23,21" id="route_CB0B710F-1D10-488B-AC94-E1517201664B-KM-25-GEGEN-4F5217A2-D747-4B21-B0CB-C6DEBDAAC0D3-KM-152.73211692197054-IN"/>
	<route edges="671cc-1 671cc-2 2a612-4-re 2a612-3-re" color="36,190,245" id="route_602F0422-2ACF-4924-8A44-5D2CCA5671CC-KM-848.6990357234663-IN-1D7B2D3F-4D90-4F89-8E89-F2280022A612-KM-1000-GEGEN"/>
	<route edges="671cc-1-re 671cc-0-re c31b7-0 c31b7-1" color="185,111,84" id="route_602F0422-2ACF-4924-8A44-5D2CCA5671CC-KM-25-GEGEN-AFA4F0C5-9000-464D-A5FD-DC0DC3AC31B7-KM-1000-IN"/>
	<route edges="c31b7-1 c31b7-2 c31b7-3" color="15,248,226" id="route_AFA4F0C5-9000-464D-A5FD-DC0DC3AC31B7-KM-1000-IN-AFA4F0C5-9000-464D-A5FD-DC0DC3AC31B7-KM-2000-IN"/>
	<route edges="c31b7-3 c31b7-4 c31b7-5" color="122,49,124" id="route_AFA4F0C5-9000-464D-A5FD-DC0DC3AC31B7-KM-2000-IN-AFA4F0C5-9000-464D-A5FD-DC0DC3AC31B7-KM-3000-IN"/>
	<route edges="c31b7-5 c31b7-6 c31b7-7" color="110,186,103" id="route_AFA4F0C5-9000-464D-A5FD-DC0DC3AC31B7-KM-3000-IN-AFA4F0C5-9000-464D-A5FD-DC0DC3AC31B7-KM-4000-IN"/>
	<route edges="c31b7-7 c31b7-8 c31b7-9" color="11,79,31" id="route_AFA4F0C5-9000-464D-A5FD-DC0DC3AC31B7-KM-4000-IN-AFA4F0C5-9000-464D-A5FD-DC0DC3AC31B7-KM-5000-IN"/>
	<route edges="c31b7-9 c31b7-10 c31b7-11" color="254,68,164" id="route_AFA4F0C5-9000-464D-A5FD-DC0DC3AC31B7-KM-5000-IN-AFA4F0C5-9000-464D-A5FD-DC0DC3AC31B7-KM-6000-IN"/>
	<route edges="c31b7-11 c31b7-12 c31b7-13" color="179,37,111" id="route_AFA4F0C5-9000-464D-A5FD-DC0DC3AC31B7-KM-6000-IN-AFA4F0C5-9000-464D-A5FD-DC0DC3AC31B7-KM-7625.423054083232-IN"/>
	<route edges="c31b7-13 c31b7-14 01bfe-0 01bfe-1" color="18,241,160" id="route_AFA4F0C5-9000-464D-A5FD-DC0DC3AC31B7-KM-7625.423054083232-IN-897CCE6D-837F-4E34-B524-BB4F05601BFE-KM-86.42029216853058-IN"/>
	<route edges="c31b7-13-re c31b7-12-re c31b7-11-re" color="49,101,65" id="route_AFA4F0C5-9000-464D-A5FD-DC0DC3AC31B7-KM-6000-GEGEN-AFA4F0C5-9000-464D-A5FD-DC0DC3AC31B7-KM-5000-GEGEN"/>
	<route edges="c31b7-11-re c31b7-10-re c31b7-9-re" color="242,64,7" id="route_AFA4F0C5-9000-464D-A5FD-DC0DC3AC31B7-KM-5000-GEGEN-AFA4F0C5-9000-464D-A5FD-DC0DC3AC31B7-KM-4000-GEGEN"/>
	<route edges="c31b7-9-re c31b7-8-re c31b7-7-re" color="29,202,96" id="route_AFA4F0C5-9000-464D-A5FD-DC0DC3AC31B7-KM-4000-GEGEN-AFA4F0C5-9000-464D-A5FD-DC0DC3AC31B7-KM-3000-GEGEN"/>
	<route edges="c31b7-7-re c31b7-6-re c31b7-5-re" color="106,71,167" id="route_AFA4F0C5-9000-464D-A5FD-DC0DC3AC31B7-KM-3000-GEGEN-AFA4F0C5-9000-464D-A5FD-DC0DC3AC31B7-KM-2000-GEGEN"/>
	<route edges="c31b7-5-re c31b7-4-re c31b7-3-re" color="72,31,152" id="route_AFA4F0C5-9000-464D-A5FD-DC0DC3AC31B7-KM-2000-GEGEN-AFA4F0C5-9000-464D-A5FD-DC0DC3AC31B7-KM-1000-GEGEN"/>
	<route edges="c31b7-3-re c31b7-2-re c31b7-1-re" color="26,216,247" id="route_AFA4F0C5-9000-464D-A5FD-DC0DC3AC31B7-KM-1000-GEGEN-AFA4F0C5-9000-464D-A5FD-DC0DC3AC31B7-KM-25-GEGEN"/>
	<route edges="c31b7-1-re c31b7-0-re 91dda-0 91dda-1" color="179,89,242" id="route_AFA4F0C5-9000-464D-A5FD-DC0DC3AC31B7-KM-25-GEGEN-2AFAACD6-0F89-419D-8257-5AA5B9591DDA-KM-127.01052255433262-IN"/>
	<route edges="c31b7-1-re c31b7-0-re 671cc-0 671cc-1" color="255,206,9" id="route_AFA4F0C5-9000-464D-A5FD-DC0DC3AC31B7-KM-25-GEGEN-602F0422-2ACF-4924-8A44-5D2CCA5671CC-KM-848.6990357234663-IN"/>
	<route edges="91dda-1 91dda-2 595a2-2-re 595a2-1-re" color="216,109,204" id="route_2AFAACD6-0F89-419D-8257-5AA5B9591DDA-KM-127.01052255433262-IN-F1D570F0-9E1C-4004-A582-6770745595A2-KM-25-GEGEN"/>
	<route edges="91dda-1-re 91dda-0-re c31b7-0 c31b7-1" color="218,132,178" id="route_2AFAACD6-0F89-419D-8257-5AA5B9591DDA-KM-25-GEGEN-AFA4F0C5-9000-464D-A5FD-DC0DC3AC31B7-KM-1000-IN"/>
	<route edges="2fa54-1 2fa54-2 92ece-0 5e39f-0 5e39f-1" color="237,118,95" id="route_B2E51B92-CAC8-4603-BAA7-B5DBE972FA54-KM-164.87032984724672-IN-BE5DED0B-DB07-43EC-AF24-4B5EC7F5E39F-KM-181.66400492600528-IN"/>
	<route edges="2fa54-1 2fa54-2 92ece-0 f1372-0 f1372-1" color="119,249,166" id="route_B2E51B92-CAC8-4603-BAA7-B5DBE972FA54-KM-164.87032984724672-IN-651E5C8A-8241-4C56-A49C-F80644CF1372-KM-340.8087986779541-IN"/>
	<route edges="2fa54-1-re 2fa54-0-re b3385-2-re b3385-1-re" color="94,40,153" id="route_B2E51B92-CAC8-4603-BAA7-B5DBE972FA54-KM-25-GEGEN-D9F63E43-D69E-44A1-935F-9AA9D8AB3385-KM-25-GEGEN"/>
	<route edges="f1372-1 f1372-2 9321c-0-re be4f5-0 be4f5-1" color="125,82,61" id="route_651E5C8A-8241-4C56-A49C-F80644CF1372-KM-340.8087986779541-IN-4A51F16F-A912-48F2-9521-D0EFBBEBE4F5-KM-1000-IN"/>
	<route edges="f1372-1 f1372-2 9321c-0-re fba8f-0 83920-0 83920-1" color="242,65,222" id="route_651E5C8A-8241-4C56-A49C-F80644CF1372-KM-340.8087986779541-IN-BFEED63F-AD82-43CF-9536-4AD575383920-KM-1000-IN"/>
	<route edges="f1372-1-re f1372-0-re 92ece-0-re 96e8f-0 ce8ea-0-re 095d7-2-re 095d7-1-re" color="103,204,140" id="route_651E5C8A-8241-4C56-A49C-F80644CF1372-KM-25-GEGEN-26C1A0AA-3E18-4974-ABD1-A4739CB095D7-KM-25-GEGEN"/>
	<route edges="f1372-1-re f1372-0-re 92ece-0-re 96e8f-0 ce8ea-0-re b5a50-0-re b3385-2-re b3385-1-re" color="70,229,242" id="route_651E5C8A-8241-4C56-A49C-F80644CF1372-KM-25-GEGEN-D9F63E43-D69E-44A1-935F-9AA9D8AB3385-KM-25-GEGEN"/>
	<route edges="f1372-1-re f1372-0-re 92ece-0-re 2fa54-2-re 2fa54-1-re" color="253,1,229" id="route_651E5C8A-8241-4C56-A49C-F80644CF1372-KM-25-GEGEN-B2E51B92-CAC8-4603-BAA7-B5DBE972FA54-KM-25-GEGEN"/>
	<route edges="5e39f-1 5e39f-2 a0ac3-0-re f7243-2-re f7243-1-re" color="78,178,104" id="route_BE5DED0B-DB07-43EC-AF24-4B5EC7F5E39F-KM-181.66400492600528-IN-BBB69DC3-9454-4E62-8D82-4A344F6F7243-KM-25-GEGEN"/>
	<route edges="5e39f-1 5e39f-2 a0ac3-0-re 60665-0 59c03-4-re 59c03-3-re" color="105,209,121" id="route_BE5DED0B-DB07-43EC-AF24-4B5EC7F5E39F-KM-181.66400492600528-IN-3158325A-921C-40CD-8509-4EA1A1459C03-KM-1000-GEGEN"/>
	<route edges="5e39f-1 5e39f-2 a0ac3-0-re 60665-0 b0416-0-re 9321c-0-re be4f5-0 be4f5-1" color="130,204,208" id="route_BE5DED0B-DB07-43EC-AF24-4B5EC7F5E39F-KM-181.66400492600528-IN-4A51F16F-A912-48F2-9521-D0EFBBEBE4F5-KM-1000-IN"/>
	<route edges="5e39f-1 5e39f-2 a0ac3-0-re 60665-0 b0416-0-re 9321c-0-re fba8f-0 83920-0 83920-1" color="72,188,27" id="route_BE5DED0B-DB07-43EC-AF24-4B5EC7F5E39F-KM-181.66400492600528-IN-BFEED63F-AD82-43CF-9536-4AD575383920-KM-1000-IN"/>
	<route edges="5e39f-1-re 5e39f-0-re 92ece-0-re 96e8f-0 ce8ea-0-re 095d7-2-re 095d7-1-re" color="2,199,131" id="route_BE5DED0B-DB07-43EC-AF24-4B5EC7F5E39F-KM-25-GEGEN-26C1A0AA-3E18-4974-ABD1-A4739CB095D7-KM-25-GEGEN"/>
	<route edges="5e39f-1-re 5e39f-0-re 92ece-0-re 96e8f-0 ce8ea-0-re b5a50-0-re b3385-2-re b3385-1-re" color="181,78,223" id="route_BE5DED0B-DB07-43EC-AF24-4B5EC7F5E39F-KM-25-GEGEN-D9F63E43-D69E-44A1-935F-9AA9D8AB3385-KM-25-GEGEN"/>
	<route edges="5e39f-1-re 5e39f-0-re 92ece-0-re 2fa54-2-re 2fa54-1-re" color="170,89,171" id="route_BE5DED0B-DB07-43EC-AF24-4B5EC7F5E39F-KM-25-GEGEN-B2E51B92-CAC8-4603-BAA7-B5DBE972FA54-KM-25-GEGEN"/>
	<route edges="01bfe-1 01bfe-2 f0024-2-re f0024-1-re" color="96,122,206" id="route_897CCE6D-837F-4E34-B524-BB4F05601BFE-KM-86.42029216853058-IN-56B55C4B-1B7E-4367-805A-8C94316F0024-KM-25-GEGEN"/>
	<route edges="01bfe-1 01bfe-2 62033-0-re 72e59-0 72e59-1" color="229,144,153" id="route_897CCE6D-837F-4E34-B524-BB4F05601BFE-KM-86.42029216853058-IN-56BF32B3-3EBF-4F13-B2B0-FAAB74C72E59-KM-1453.541904487744-IN"/>
	<route edges="01bfe-1-re 01bfe-0-re 59c03-0 59c03-1" color="220,158,140" id="route_897CCE6D-837F-4E34-B524-BB4F05601BFE-KM-25-GEGEN-3158325A-921C-40CD-8509-4EA1A1459C03-KM-1000-IN"/>
	<route edges="01bfe-1-re 01bfe-0-re c31b7-14-re c31b7-13-re" color="222,134,176" id="route_897CCE6D-837F-4E34-B524-BB4F05601BFE-KM-25-GEGEN-AFA4F0C5-9000-464D-A5FD-DC0DC3AC31B7-KM-6000-GEGEN"/>
	<route edges="59c03-1 59c03-2 59c03-3" color="171,48,17" id="route_3158325A-921C-40CD-8509-4EA1A1459C03-KM-1000-IN-3158325A-921C-40CD-8509-4EA1A1459C03-KM-2904.2543286491227-IN"/>
	<route edges="59c03-3 59c03-4 60665-0-re a0ac3-0 5e39f-2-re 5e39f-1-re" color="35,116,12" id="route_3158325A-921C-40CD-8509-4EA1A1459C03-KM-2904.2543286491227-IN-BE5DED0B-DB07-43EC-AF24-4B5EC7F5E39F-KM-25-GEGEN"/>
	<route edges="59c03-3 59c03-4 60665-0-re a0ac3-0 fc65c-0 03c05-0 03c05-1" color="163,163,233" id="route_3158325A-921C-40CD-8509-4EA1A1459C03-KM-2904.2543286491227-IN-4755D0BD-5E1D-4604-BB25-D65AD1003C05-KM-893.3775715190525-IN"/>