<edges>
<!-- Track f969bf7d-a87f-4828-aaf1-3be54f22c518 -->
<edge id="2c518-0" from="d1824" to="f969bf7d-a87f-4828-aaf1-3be54f22c518-km-25-gegen" shape="-2502198.1259712474,3467432.6135298666 -2502222.669270449,3467437.370258187" priority="-1" numLanes="1" speed="110.0" allow="rail rail_electric" spreadType="center" />
<edge id="2c518-0-re" from="f969bf7d-a87f-4828-aaf1-3be54f22c518-km-25-gegen" to="d1824" shape="-2502222.669270449,3467437.370258187 -2502198.1259712474,3467432.6135298666" priority="-1" numLanes="1" speed="110.0" allow="rail rail_electric" spreadType="center" />
<!-- Track f969bf7d-a87f-4828-aaf1-3be54f22c518 -->
<edge id="2c518-1" from="f969bf7d-a87f-4828-aaf1-3be54f22c518-km-25-gegen" to="f969bf7d-a87f-4828-aaf1-3be54f22c518-km-321.5762856547864-in" shape="-2502222.669270449,3467437.370258187 -2502326.879854113,3467457.567275325 -2502513.502873321,3467495.4370743074" priority="-1" numLanes="1" speed="110.0" allow="rail rail_electric" spreadType="center" />
<edge id="2c518-1-re" from="f969bf7d-a87f-4828-aaf1-3be54f22c518-km-321.5762856547864-in" to="f969bf7d-a87f-4828-aaf1-3be54f22c518-km-25-gegen" shape="-2502513.502873321,3467495.4370743074 -2502326.879854113,3467457.567275325 -2502222.669270449,3467437.370258187" priority="-1" numLanes="1" speed="110.0" allow="rail rail_electric" spreadType="center" />
<!-- Track f969bf7d-a87f-4828-aaf1-3be54f22c518 -->
<edge id="2c518-2" from="f969bf7d-a87f-4828-aaf1-3be54f22c518-km-321.5762856547864-in" to="9d755" shape="-2502513.502873321,3467495.4370743074 -2502538.003529084,3467500.4087809734" priority="-1" numLanes="1" speed="110.0" allow="rail rail_electric" spreadType="center" />
<edge id="2c518-2-re" from="9d755" to="f969bf7d-a87f-4828-aaf1-3be54f22c518-km-321.5762856547864-in" shape="-2502538.003529084,3467500.4087809734 -2502513.502873321,3467495.4370743074" priority="-1" numLanes="1" speed="110.0" allow="rail rail_electric" spreadType="center" />
<!-- Track 0aec03f2-f8b9-4658-91d0-a1f640360cd5 -->
<edge id="60cd5-0" from="d1824" to="0aec03f2-f8b9-4658-91d0-a1f640360cd5-km-25-gegen" shape="-2502198.1259712474,3467432.6135298666 -2502173.6116686147,3467427.7095553116" priority="-1" numLanes="1" speed="110.0" allow="rail rail_electric" spreadType="center" />
<edge id="60cd5-0-re" from="0aec03f2-f8b9-4658-91d0-a1f640360cd5-km-25-gegen" to="d1824" shape="-2502173.6116686147,3467427.7095553116 -2502198.1259712474,3467432.6135298666" priority="-1" numLanes="1" speed="110.0" allow="rail rail_electric" spreadType="center" />
<!-- Track 0aec03f2-f8b9-4658-91d0-a1f640360cd5 -->
<edge id="60cd5-1" from="0aec03f2-f8b9-4658-91d0-a1f640360cd5-km-25-gegen" to="0aec03f2-f8b9-4658-91d0-a1f640360cd5-km-165.5616561823125-in" shape="-2502173.6116686147,3467427.7095553116 -2502035.7808294874,3467400.137123897" priority="-1" numLanes="1" speed="110.0" allow="rail rail_electric" spreadType="center" />
<edge id="60cd5-1-re" from="0aec03f2-f8b9-4658-91d0-a1f640360cd5-km-165.5616561823125-in" to="0aec03f2-f8b9-4658-91d0-a1f640360cd5-km-25-gegen" shape="-2502035.7808294874,3467400.137123897 -2502173.6116686147,3467427.7095553116" priority="-1" numLanes="1" speed="110.0" allow="rail rail_electric" spreadType="center" />
<!-- Track 0aec03f2-f8b9-4658-91d0-a1f640360cd5 -->
<edge id="60cd5-2" from="0aec03f2-f8b9-4658-91d0-a1f640360cd5-km-165.5616561823125-in" to="45a22" shape="-2502035.7808294874,3467400.137123897 -2502011.2665268546,3467395.2331493422" priority="-1" numLanes="1" speed="110.0" allow="rail rail_electric" spreadType="center" />
<edge id="60cd5-2-re" from="45a22" to="0aec03f2-f8b9-4658-91d0-a1f640360cd5-km-165.5616561823125-in" shape="-2502011.2665268546,3467395.2331493422 -2502035.7808294874,3467400.137123897" priority="-1" numLanes="1" speed="110.0" allow="rail rail_electric" spreadType="center" />
<!-- Track adf2ec5b-c7be-4343-9a68-b9ec3fe495a8 -->
<edge id="495a8-0" from="d1824" to="adf2ec5b-c7be-4343-9a68-b9ec3fe495a8-km-25-gegen" shape="-2502198.1259712474,3467432.6135298666 -2502173.3051357637,3467429.6258675884" priority="-1" numLanes="1" speed="110.0" allow="rail rail_electric" spreadType="center" />
<edge id="495a8-0-re" from="adf2ec5b-c7be-4343-9a68-b9ec3fe495a8-km-25-gegen" to="d1824" shape="-2502173.3051357637,3467429.6258675884 -2502198.1259712474,3467432.6135298666" priority="-1" numLanes="1" speed="110.0" allow="rail rail_electric" spreadType="center" />
<!-- Track adf2ec5b-c7be-4343-9a68-b9ec3fe495a8 -->
<edge id="495a8-1" from="adf2ec5b-c7be-4343-9a68-b9ec3fe495a8-km-25-gegen" to="adf2ec5b-c7be-4343-9a68-b9ec3fe495a8-km-852.2588211144425-in" shape="-2502173.3051357637,3467429.6258675884 -2501986.5440240223,3467407.1455957647 -2501941.394594235,3467406.669230707 -2501900.14020605,3467408.084832847 -2501830.2628213717,3467412.3299855366 -2501757.781161777,3467419.529616246 -2501699.9119592384,3467418.698338378 -2501637.2374989176,3467415.157012349 -2501580.245985288,3467407.526348047 -2501352.99611748,3467362.206877052" priority="-1" numLanes="1" speed="110.0" allow="rail rail_electric" spreadType="center" />
<edge id="495a8-1-re" from="adf2ec5b-c7be-4343-9a68-b9ec3fe495a8-km-852.2588211144425-in" to="adf2ec5b-c7be-4343-9a68-b9ec3fe495a8-km-25-gegen" shape="-2501352.99611748,3467362.206877052 -2501580.245985288,3467407.526348047 -2501637.2374989176,3467415.157012349 -2501699.9119592384,3467418.698338378 -2501757.781161777,3467419.529616246 -2501830.2628213717,3467412.3299855366 -2501900.14020605,3467408.084832847 -2501941.394594235,3467406.669230707 -2501986.5440240223,3467407.1455957647 -2502173.3051357637,3467429.6258675884" priority="-1" numLanes="1" speed="110.0" allow="rail rail_electric" spreadType="center" />
<!-- Track adf2ec5b-c7be-4343-9a68-b9ec3fe495a8 -->
<edge id="495a8-2" from="adf2ec5b-c7be-4343-9a68-b9ec3fe495a8-km-852.2588211144425-in" to="228ab" shape="-2501352.99611748,3467362.206877052 -2501328.4788967334,3467357.3175123837" priority="-1" numLanes="1" speed="110.0" allow="rail rail_electric" spreadType="center" />
<edge id="495a8-2-re" from="228ab" to="adf2ec5b-c7be-4343-9a68-b9ec3fe495a8-km-852.2588211144425-in" shape="-2501328.4788967334,3467357.3175123837 -2501352.99611748,3467362.206877052" priority="-1" numLanes="1" speed="110.0" allow="rail rail_electric" spreadType="center" />
<!-- Track 9d3aba5e-d032-4a93-bf38-7513cdc99fff -->
<edge id="99fff-0" from="45a22" to="9d3aba5e-d032-4a93-bf38-7513cdc99fff-km-25-gegen" shape="-2502011.2665268546,3467395.2331493422 -2501986.4846162554,3467391.938167242" priority="-1" numLanes="1" speed="110.0" allow="rail rail_electric" spreadType="center" />
<edge id="99fff-0-re" from="9d3aba5e-d032-4a93-bf38-7513cdc99fff-km-25-gegen" to="45a22" shape="-2501986.4846162554,3467391.938167242 -2502011.2665268546,3467395.2331493422" priority="-1" numLanes="1" speed="110.0" allow="rail rail_electric" spreadType="center" />
<!-- Track 9d3aba5e-d032-4a93-bf38-7513cdc99fff -->
<edge id="99fff-1" from="9d3aba5e-d032-4a93-bf38-7513cdc99fff-km-25-gegen" to="9d3aba5e-d032-4a93-bf38-7513cdc99fff-km-788.1457216628645-in" shape="-2501986.4846162554,3467391.938167242 -2501902.187891895,3467380.730145294 -2501866.152929621,3467378.21362713 -2501673.0765554016,3467367.3538590707 -2501592.416926997,3467359.140942909 -2501551.447303158,3467353.074182581 -2501505.253120913,3467345.780980693 -2501231.263445984,3467291.352738634" priority="-1" numLanes="1" speed="110.0" allow="rail rail_electric" spreadType="center" />
<edge id="99fff-1-re" from="9d3aba5e-d032-4a93-bf38-7513cdc99fff-km-788.1457216628645-in" to="9d3aba5e-d032-4a93-bf38-7513cdc99fff-km-25-gegen" shape="-2501231.263445984,3467291.352738634 -2501505.253120913,3467345.780980693 -2501551.447303158,3467353.074182581 -2501592.416926997,3467359.140942909 -2501673.0765554016,3467367.3538590707 -2501866.152929621,3467378.21362713 -2501902.187891895,3467380.730145294 -2501986.4846162554,3467391.938167242" priority="-1" numLanes="1" speed="110.0" allow="rail rail_electric" spreadType="center" />
<!-- Track 9d3aba5e-d032-4a93-bf38-7513cdc99fff -->
<edge id="99fff-2" from="9d3aba5e-d032-4a93-bf38-7513cdc99fff-km-788.1457216628645-in" to="d29b6" shape="-2501231.263445984,3467291.352738634 -2501206.7425870663,3467286.4816527255" priority="-1" numLanes="1" speed="110.0" allow="rail rail_electric" spreadType="center" />
<edge id="99fff-2-re" from="d29b6" to="9d3aba5e-d032-4a93-bf38-7513cdc99fff-km-788.1457216628645-in" shape="-2501206.7425870663,3467286.4816527255 -2501231.263445984,3467291.352738634" priority="-1" numLanes="1" speed="110.0" allow="rail rail_electric" spreadType="center" />
<!-- Track 061d91a5-8ac7-4674-8703-83ee3e7edaa3 -->
<edge id="edaa3-0" from="45a22" to="061d91a5-8ac7-4674-8703-83ee3e7edaa3-km-25-gegen" shape="-2502011.2665268546,3467395.2331493422 -2501986.867727038,3467389.7835101327" priority="-1" numLanes="1" speed="110.0" allow="rail rail_electric" spreadType="center" />
<edge id="edaa3-0-re" from="061d91a5-8ac7-4674-8703-83ee3e7edaa3-km-25-gegen" to="45a22" shape="-2501986.867727038,3467389.7835101327 -2502011.2665268546,3467395.2331493422" priority="-1" numLanes="1" speed="110.0" allow="rail rail_electric" spreadType="center" />
<!-- Track 061d91a5-8ac7-4674-8703-83ee3e7edaa3 -->
<edge id="edaa3-1" from="061d91a5-8ac7-4674-8703-83ee3e7edaa3-km-25-gegen" to="061d91a5-8ac7-4674-8703-83ee3e7edaa3-km-238.52550007798908-in" shape="-2501986.867727038,3467389.7835101327 -2501807.904326056,3467349.8108076043 -2501778.5806097006,3467342.790603453" priority="-1" numLanes="1" speed="110.0" allow="rail rail_electric" spreadType="center" />
<edge id="edaa3-1-re" from="061d91a5-8ac7-4674-8703-83ee3e7edaa3-km-238.52550007798908-in" to="061d91a5-8ac7-4674-8703-83ee3e7edaa3-km-25-gegen" shape="-2501778.5806097006,3467342.790603453 -2501807.904326056,3467349.8108076043 -2501986.867727038,3467389.7835101327" priority="-1" numLanes="1" speed="110.0" allow="rail rail_electric" spreadType="center" />
<!-- Track 061d91a5-8ac7-4674-8703-83ee3e7edaa3 -->
<edge id="edaa3-2" from="061d91a5-8ac7-4674-8703-83ee3e7edaa3-km-238.52550007798908-in" to="1e4ea" shape="-2501778.5806097006,3467342.790603453 -2501754.2676406577,3467336.9699903987" priority="-1" numLanes="1" speed="110.0" allow="rail rail_electric" spreadType="center" />
<edge id="edaa3-2-re" from="1e4ea" to="061d91a5-8ac7-4674-8703-83ee3e7edaa3-km-238.52550007798908-in" shape="-2501754.2676406577,3467336.9699903987 -2501778.5806097006,3467342.790603453" priority="-1" numLanes="1" speed="110.0" allow="rail rail_electric" spreadType="center" />
<!-- Track b2654281-5581-4a06-9f85-0de96b858001 -->
<edge id="58001-0" from="d29b6" to="b2654281-5581-4a06-9f85-0de96b858001-km-25-gegen" shape="-2501206.7425870663,3467286.4816527255 -2501182.2386736786,3467281.5260267616" priority="-1" numLanes="1" speed="110.0" allow="rail rail_electric" spreadType="center" />
<edge id="58001-0-re" from="b2654281-5581-4a06-9f85-0de96b858001-km-25-gegen" to="d29b6" shape="-2501182.2386736786,3467281.5260267616 -2501206.7425870663,3467286.4816527255" priority="-1" numLanes="1" speed="110.0" allow="rail rail_electric" spreadType="center" />
<!-- Track b2654281-5581-4a06-9f85-0de96b858001 -->
<edge id="58001-1" from="b2654281-5581-4a06-9f85-0de96b858001-km-25-gegen" to="b2654281-5581-4a06-9f85-0de96b858001-km-169.7673894741766-in" shape="-2501182.2386736786,3467281.5260267616 -2501040.343970758,3467252.8295054003" priority="-1" numLanes="1" speed="110.0" allow="rail rail_electric" spreadType="center" />
<edge id="58001-1-re" from="b2654281-5581-4a06-9f85-0de96b858001-km-169.7673894741766-in" to="b2654281-5581-4a06-9f85-0de96b858001-km-25-gegen" shape="-2501040.343970758,3467252.8295054003 -2501182.2386736786,3467281.5260267616" priority="-1" numLanes="1" speed="110.0" allow="rail rail_electric" spreadType="center" />
<!-- Track b2654281-5581-4a06-9f85-0de96b858001 -->
<edge id="58001-2" from="b2654281-5581-4a06-9f85-0de96b858001-km-169.7673894741766-in" to="37402" shape="-2501040.343970758,3467252.8295054003 -2501015.8400573703,3467247.8738794364" priority="-1" numLanes="1" speed="110.0" allow="rail rail_electric" spreadType="center" />
<edge id="58001-2-re" from="37402" to="b2654281-5581-4a06-9f85-0de96b858001-km-169.7673894741766-in" shape="-2501015.8400573703,3467247.8738794364 -2501040.343970758,3467252.8295054003" priority="-1" numLanes="1" speed="110.0" allow="rail rail_electric" spreadType="center" />
<!-- Track f08977d7-573e-4bd5-9a06-6e86adb1960e -->
<edge id="1960e-0" from="d29b6" to="f08977d7-573e-4bd5-9a06-6e86adb1960e-km-25-gegen" shape="-2501206.7425870663,3467286.4816527255 -2501231.489801964,3467290.0278274002" priority="-1" numLanes="1" speed="110.0" allow="rail rail_electric" spreadType="center" />
<edge id="1960e-0-re" from="f08977d7-573e-4bd5-9a06-6e86adb1960e-km-25-gegen" to="d29b6" shape="-2501231.489801964,3467290.0278274002 -2501206.7425870663,3467286.4816527255" priority="-1" numLanes="1" speed="110.0" allow="rail rail_electric" spreadType="center" />
<!-- Track f08977d7-573e-4bd5-9a06-6e86adb1960e -->
<edge id="1960e-1" from="f08977d7-573e-4bd5-9a06-6e86adb1960e-km-25-gegen" to="4899c" shape="-2501231.489801964,3467290.0278274002 -2501292.2642674847,3467298.736559732 -2501351.8286421327,3467306.9248945564 -2501777.896236745,3467364.0153826177" priority="-1" numLanes="1" speed="110.0" allow="rail rail_electric" spreadType="center" />
<edge id="1960e-1-re" from="4899c" to="f08977d7-573e-4bd5-9a06-6e86adb1960e-km-25-gegen" shape="-2501777.896236745,3467364.0153826177 -2501351.8286421327,3467306.9248945564 -2501292.2642674847,3467298.736559732 -2501231.489801964,3467290.0278274002" priority="-1" numLanes="1" speed="110.0" allow="rail rail_electric" spreadType="center" />
<!-- Track 8d105ded-175c-4c7b-8d68-924ee9aa2d3a -->
<edge id="a2d3a-0" from="37402" to="8d105ded-175c-4c7b-8d68-924ee9aa2d3a-km-25-gegen" shape="-2501015.8400573703,3467247.8738794364 -2500991.319573685,3467243.0009050015" priority="-1" numLanes="1" speed="110.0" allow="rail rail_electric" spreadType="center" />
<edge id="a2d3a-0-re" from="8d105ded-175c-4c7b-8d68-924ee9aa2d3a-km-25-gegen" to="37402" shape="-2500991.319573685,3467243.0009050015 -2501015.8400573703,3467247.8738794364" priority="-1" numLanes="1" speed="110.0" allow="rail rail_electric" spreadType="center" />
<!-- Track 8d105ded-175c-4c7b-8d68-924ee9aa2d3a -->
<edge id="a2d3a-1" from="8d105ded-175c-4c7b-8d68-924ee9aa2d3a-km-25-gegen" to="8d105ded-175c-4c7b-8d68-924ee9aa2d3a-km-684.7733628877847-in" shape="-2500991.319573685,3467243.0009050015 -2500344.2010944607,3467114.398555789" priority="-1" numLanes="1" speed="110.0" allow="rail rail_electric" spreadType="center" />
<edge id="a2d3a-1-re" from="8d105ded-175c-4c7b-8d68-924ee9aa2d3a-km-684.7733628877847-in" to="8d105ded-175c-4c7b-8d68-924ee9aa2d3a-km-25-gegen" shape="-2500344.2010944607,3467114.398555789 -2500991.319573685,3467243.0009050015" priority="-1" numLanes="1" speed="110.0" allow="rail rail_electric" spreadType="center" />
<!-- Track 8d105ded-175c-4c7b-8d68-924ee9aa2d3a -->
<edge id="a2d3a-2" from="8d105ded-175c-4c7b-8d68-924ee9aa2d3a-km-684.7733628877847-in" to="cdfea" shape="-2500344.2010944607,3467114.398555789 -2500319.680610776,3467109.5255813543" priority="-1" numLanes="1" speed="110.0" allow="rail rail_electric" spreadType="center" />
<edge id="a2d3a-2-re" from="cdfea" to="8d105ded-175c-4c7b-8d68-924ee9aa2d3a-km-684.7733628877847-in" shape="-2500319.680610776,3467109.5255813543 -2500344.2010944607,3467114.398555789" priority="-1" numLanes="1" speed="110.0" allow="rail rail_electric" spreadType="center" />
<!-- Track 1b7d851e-5776-48dc-828f-9809c55899ec -->
<edge id="899ec-0" from="37402" to="1b7d851e-5776-48dc-828f-9809c55899ec-km-25-gegen" shape="-2501015.8400573703,3467247.8738794364 -2501040.129426962,3467253.792200551" priority="-1" numLanes="1" speed="110.0" allow="rail rail_electric" spreadType="center" />
<edge id="899ec-0-re" from="1b7d851e-5776-48dc-828f-9809c55899ec-km-25-gegen" to="37402" shape="-2501040.129426962,3467253.792200551 -2501015.8400573703,3467247.8738794364" priority="-1" numLanes="1" speed="110.0" allow="rail rail_electric" spreadType="center" />
<!-- Track 1b7d851e-5776-48dc-828f-9809c55899ec -->
<edge id="899ec-1" from="1b7d851e-5776-48dc-828f-9809c55899ec-km-25-gegen" to="68a62" shape="-2501040.129426962,3467253.792200551 -2501115.083613891,3467272.0554554053 -2501236.739845654,3467305.6705410834 -2501274.012567208,3467312.6615284346 -2501684.7521156543,3467394.7215760183" priority="-1" numLanes="1" speed="110.0" allow="rail rail_electric" spreadType="center" />
<edge id="899ec-1-re" from="68a62" to="1b7d851e-5776-48dc-828f-9809c55899ec-km-25-gegen" shape="-2501684.7521156543,3467394.7215760183 -2501274.012567208,3467312.6615284346 -2501236.739845654,3467305.6705410834 -2501115.083613891,3467272.0554554053 -2501040.129426962,3467253.792200551" priority="-1" numLanes="1" speed="110.0" allow="rail rail_electric" spreadType="center" />
<!-- Track 2e169e42-1602-42d2-b0f4-0b73294b615e -->
<edge id="b615e-0" from="22a94" to="2e169e42-1602-42d2-b0f4-0b73294b615e-km-25-gegen" shape="-2498540.5476426897,3466763.493575601 -2498516.147492651,3466758.0499850498" priority="-1" numLanes="1" speed="110.0" allow="rail rail_electric" spreadType="center" />
<edge id="b615e-0-re" from="2e169e42-1602-42d2-b0f4-0b73294b615e-km-25-gegen" to="22a94" shape="-2498516.147492651,3466758.0499850498 -2498540.5476426897,3466763.493575601" priority="-1" numLanes="1" speed="110.0" allow="rail rail_electric" spreadType="center" />
<!-- Track 2e169e42-1602-42d2-b0f4-0b73294b615e -->
<edge id="b615e-1" from="2e169e42-1602-42d2-b0f4-0b73294b615e-km-25-gegen" to="2e169e42-1602-42d2-b0f4-0b73294b615e-km-254.45431792963808-in" shape="-2498516.147492651,3466758.0499850498 -2498402.661352981,3466732.7316129655 -2498329.9658797192,3466713.124746185 -2498293.0708839176,3466704.520165761" priority="-1" numLanes="1" speed="110.0" allow="rail rail_electric" spreadType="center" />
<edge id="b615e-1-re" from="2e169e42-1602-42d2-b0f4-0b73294b615e-km-254.45431792963808-in" to="2e169e42-1602-42d2-b0f4-0b73294b615e-km-25-gegen" shape="-2498293.0708839176,3466704.520165761 -2498329.9658797192,3466713.124746185 -2498402.661352981,3466732.7316129655 -2498516.147492651,3466758.0499850498" priority="-1" numLanes="1" speed="110.0" allow="rail rail_electric" spreadType="center" />
<!-- Track 2e169e42-1602-42d2-b0f4-0b73294b615e -->
<edge id="b615e-2" from="2e169e42-1602-42d2-b0f4-0b73294b615e-km-254.45431792963808-in" to="bd189" shape="-2498293.0708839176,3466704.520165761 -2498268.7242329344,3466698.8420863394" priority="-1" numLanes="1" speed="110.0" allow="rail rail_electric" spreadType="center" />
<edge id="b615e-2-re" from="bd189" to="2e169e42-1602-42d2-b0f4-0b73294b615e-km-254.45431792963808-in" shape="-2498268.7242329344,3466698.8420863394 -2498293.0708839176,3466704.520165761" priority="-1" numLanes="1" speed="110.0" allow="rail rail_electric" spreadType="center" />
<!-- Track f10475ec-f717-45e5-890b-b4bfb54462c2 -->
<edge id="462c2-0" from="22a94" to="7183f" shape="-2498540.5476426897,3466763.493575601 -2498576.533874395,3466770.6508105323" priority="-1" numLanes="1" speed="110.0" allow="rail rail_electric" spreadType="center" />
<edge id="462c2-0-re" from="7183f" to="22a94" shape="-2498576.533874395,3466770.6508105323 -2498540.5476426897,3466763.493575601" priority="-1" numLanes="1" speed="110.0" allow="rail rail_electric" spreadType="center" />
<!-- Track 6da98472-f6d5-450d-af0d-1e02bea42246 -->
<edge id="42246-0" from="22a94" to="6da98472-f6d5-450d-af0d-1e02bea42246-km-25-gegen" shape="-2498540.5476426897,3466763.493575601 -2498515.754955294,3466760.2806872274" priority="-1" numLanes="1" speed="110.0" allow="rail rail_electric" spreadType="center" />
<edge id="42246-0-re" from="6da98472-f6d5-450d-af0d-1e02bea42246-km-25-gegen" to="22a94" shape="-2498515.754955294,3466760.2806872274 -2498540.5476426897,3466763.493575601" priority="-1" numLanes="1" speed="110.0" allow="rail rail_electric" spreadType="center" />
<!-- Track 6da98472-f6d5-450d-af0d-1e02bea42246 -->
<edge id="42246-1" from="6da98472-f6d5-450d-af0d-1e02bea42246-km-25-gegen" to="6da98472-f6d5-450d-af0d-1e02bea42246-km-1000-in" shape="-2498515.754955294,3466760.2806872274 -2498252.6826554104,3466726.1891052946 -2498197.4809421357,3466721.890851874 -2498139.0232320046,3466720.7062249817 -2498060.3311859164,3466723.9792294167 -2497982.494693488,3466733.0181929395 -2497909.9296493446,3466748.156458294 -2497850.3497261205,3466766.0617731884 -2497809.3890527356,3466783.1006195005 -2497777.617311281,3466798.021042254 -2497757.6510621565,3466807.115437001 -2497727.259331015,3466826.298858639 -2497702.7541591264,3466844.8849410564 -2497672.7244021073,3466868.5284555852 -2497638.2983654123,3466909.567890471 -2497615.443567487,3466945.4508802867" priority="-1" numLanes="1" speed="110.0" allow="rail rail_electric" spreadType="center" />
<edge id="42246-1-re" from="6da98472-f6d5-450d-af0d-1e02bea42246-km-1000-in" to="6da98472-f6d5-450d-af0d-1e02bea42246-km-25-gegen" shape="-2497615.443567487,3466945.4508802867 -2497638.2983654123,3466909.567890471 -2497672.7244021073,3466868.5284555852 -2497702.7541591264,3466844.8849410564 -2497727.259331015,3466826.298858639 -2497757.6510621565,3466807.115437001 -2497777.617311281,3466798.021042254 -2497809.3890527356,3466783.1006195005 -2497850.3497261205,3466766.0617731884 -2497909.9296493446,3466748.156458294 -2497982.494693488,3466733.0181929395 -2498060.3311859164,3466723.9792294167 -2498139.0232320046,3466720.7062249817 -2498197.4809421357,3466721.890851874 -2498252.6826554104,3466726.1891052946 -2498515.754955294,3466760.2806872274" priority="-1" numLanes="1" speed="110.0" allow="rail rail_electric" spreadType="center" />
<!-- Track 6da98472-f6d5-450d-af0d-1e02bea42246 -->
<edge id="42246-2" from="6da98472-f6d5-450d-af0d-1e02bea42246-km-1000-in" to="6da98472-f6d5-450d-af0d-1e02bea42246-km-1000-gegen" shape="-2497615.443567487,3466945.4508802867 -2497615.443567487,3466945.4508802867" priority="-1" numLanes="1" speed="110.0" allow="rail rail_electric" spreadType="center" />
<edge id="42246-2-re" from="6da98472-f6d5-450d-af0d-1e02bea42246-km-1000-gegen" to="6da98472-f6d5-450d-af0d-1e02bea42246-km-1000-in" shape="-2497615.443567487,3466945.4508802867 -2497615.443567487,3466945.4508802867" priority="-1" numLanes="1" speed="110.0" allow="rail rail_electric" spreadType="center" />
<!-- Track 6da98472-f6d5-450d-af0d-1e02bea42246 -->
<edge id="42246-3" from="6da98472-f6d5-450d-af0d-1e02bea42246-km-1000-gegen" to="6da98472-f6d5-450d-af0d-1e02bea42246-km-2000-in" shape="-2497615.443567487,3466945.4508802867 -2497613.251409583,3466948.8926599957 -2497593.607536464,3466989.272440452 -2497575.081284268,3467046.9352106173 -2497569.9086821945,3467066.77810714 -2497563.7344133407,3467105.9624592084 -2497557.5013369834,3467146.900458861 -2497556.054178887,3467193.9233511053 -2497556.2335239397,3467236.880963335 -2497560.396947277,3467302.475907631 -2497575.6325155986,3467387.626045577 -2497591.9254659587,3467452.6755200922 -2497624.940307323,3467543.711189067 -2497663.9474137807,3467628.1184534803 -2497712.753345648,3467713.11196517 -2497760.352298308,3467784.1246131547 -2497825.0446568336,3467867.2288087048 -2497825.6623152806,3467867.93357421" priority="-1" numLanes="1" speed="110.0" allow="rail rail_electric" spreadType="center" />
<edge id="42246-3-re" from="6da98472-f6d5-450d-af0d-1e02bea42246-km-2000-in" to="6da98472-f6d5-450d-af0d-1e02bea42246-km-1000-gegen" shape="-2497825.6623152806,3467867.93357421 -2497825.0446568336,3467867.2288087048 -2497760.352298308,3467784.1246131547 -2497712.753345648,3467713.11196517 -2497663.9474137807,3467628.1184534803 -2497624.940307323,3467543.711189067 -2497591.9254659587,3467452.6755200922 -2497575.6325155986,3467387.626045577 -2497560.396947277,3467302.475907631 -2497556.2335239397,3467236.880963335 -2497556.054178887,3467193.9233511053 -2497557.5013369834,3467146.900458861 -2497563.7344133407,3467105.9624592084 -2497569.9086821945,3467066.77810714 -2497575.081284268,3467046.9352106173 -2497593.607536464,3466989.272440452 -2497613.251409583,3466948.8926599957 -2497615.443567487,3466945.4508802867" priority="-1" numLanes="1" speed="110.0" allow="rail rail_electric" spreadType="center" />
<!-- Track 6da98472-f6d5-450d-af0d-1e02bea42246 -->
<edge id="42246-4" from="6da98472-f6d5-450d-af0d-1e02bea42246-km-2000-in" to="6da98472-f6d5-450d-af0d-1e02bea42246-km-2000-gegen" shape="-2497825.6623152806,3467867.93357421 -2497825.6623152806,3467867.93357421" priority="-1" numLanes="1" speed="110.0" allow="rail rail_electric" spreadType="center" />
<edge id="42246-4-re" from="6da98472-f6d5-450d-af0d-1e02bea42246-km-2000-gegen" to="6da98472-f6d5-450d-af0d-1e02bea42246-km-2000-in" shape="-2497825.6623152806,3467867.93357421 -2497825.6623152806,3467867.93357421" priority="-1" numLanes="1" speed="110.0" allow="rail rail_electric" spreadType="center" />
<!-- Track 6da98472-f6d5-450d-af0d-1e02bea42246 -->
<edge id="42246-5" from="6da98472-f6d5-450d-af0d-1e02bea42246-km-2000-gegen" to="6da98472-f6d5-450d-af0d-1e02bea42246-km-3000-in" shape="-2497825.6623152806,3467867.93357421 -2497882.947905049,3467933.2980289906 -2497954.1841731174,3468006.7474954054 -2498048.3906442933,3468092.7958315127 -2498147.851398303,3468178.256744899 -2498263.9241143996,3468270.6784133688 -2498342.1996997884,3468330.467676915 -2498420.8086415282,3468386.541345766 -2498589.5858431384,3468509.150828742" priority="-1" numLanes="1" speed="110.0" allow="rail rail_electric" spreadType="center" />
<edge id="42246-5-re" from="6da98472-f6d5-450d-af0d-1e02bea42246-km-3000-in" to="6da98472-f6d5-450d-af0d-1e02bea42246-km-2000-gegen" shape="-2498589.5858431384,3468509.150828742 -2498420.8086415282,3468386.541345766 -2498342.1996997884,3468330.467676915 -2498263.9241143996,3468270.6784133688 -2498147.851398303,3468178.256744899 -2498048.3906442933,3468092.7958315127 -2497954.1841731174,3468006.7474954054 -2497882.947905049,3467933.2980289906 -2497825.6623152806,3467867.93357421" priority="-1" numLanes="1" speed="110.0" allow="rail rail_electric" spreadType="center" />
<!-- Track 6da98472-f6d5-450d-af0d-1e02bea42246 -->
<edge id="42246-6" from="6da98472-f6d5-450d-af0d-1e02bea42246-km-3000-in" to="6da98472-f6d5-450d-af0d-1e02bea42246-km-3000-gegen" shape="-2498589.5858431384,3468509.150828742 -2498589.5858431384,3468509.150828742" priority="-1" numLanes="1" speed="110.0" allow="rail rail_electric" spreadType="center" />
<edge id="42246-6-re" from="6da98472-f6d5-450d-af0d-1e02bea42246-km-3000-gegen" to="6da98472-f6d5-450d-af0d-1e02bea42246-km-3000-in" shape="-2498589.5858431384,3468509.150828742 -2498589.5858431384,3468509.150828742" priority="-1" numLanes="1" speed="110.0" allow="rail rail_electric" spreadType="center" />
<!-- Track 6da98472-f6d5-450d-af0d-1e02bea42246 -->
<edge id="42246-7" from="6da98472-f6d5-450d-af0d-1e02bea42246-km-3000-gegen" to="6da98472-f6d5-450d-af0d-1e02bea42246-km-4000-in" shape="-2498589.5858431384,3468509.150828742 -2498652.2203915613,3468554.6521732677 -2499030.1810028283,3468824.3028133363 -2499401.620554218,3469092.7506764457" priority="-1" numLanes="1" speed="110.0" allow="rail rail_electric" spreadType="center" />
<edge id="42246-7-re" from="6da98472-f6d5-450d-af0d-1e02bea42246-km-4000-in" to="6da98472-f6d5-450d-af0d-1e02bea42246-km-3000-gegen" shape="-2499401.620554218,3469092.7506764457 -2499030.1810028283,3468824.3028133363 -2498652.2203915613,3468554.6521732677 -2498589.5858431384,3468509.150828742" priority="-1" numLanes="1" speed="110.0" allow="rail rail_electric" spreadType="center" />
<!-- Track 6da98472-f6d5-450d-af0d-1e02bea42246 -->
<edge id="42246-8" from="6da98472-f6d5-450d-af0d-1e02bea42246-km-4000-in" to="6da98472-f6d5-450d-af0d-1e02bea42246-km-4000-gegen" shape="-2499401.620554218,3469092.7506764457 -2499401.620554218,3469092.7506764457" priority="-1" numLanes="1" speed="110.0" allow="rail rail_electric" spreadType="center" />
<edge id="42246-8-re" from="6da98472-f6d5-450d-af0d-1e02bea42246-km-4000-gegen" to="6da98472-f6d5-450d-af0d-1e02bea42246-km-4000-in" shape="-2499401.620554218,3469092.7506764457 -2499401.620554218,3469092.7506764457" priority="-1" numLanes="1" speed="110.0" allow="rail rail_electric" spreadType="center" />
<!-- Track 6da98472-f6d5-450d-af0d-1e02bea42246 -->
<edge id="42246-9" from="6da98472-f6d5-450d-af0d-1e02bea42246-km-4000-gegen" to="6da98472-f6d5-450d-af0d-1e02bea42246-km-5560.253303703657-in" shape="-2499401.620554218,3469092.7506764457 -2499492.798785879,3469158.6472708173 -2499607.485439456,3469240.351318307 -2500024.2620206666,3469539.4774315134 -2500184.6441849023,3469655.137520615 -2500305.0514081763,3469739.8357069865 -2500418.802494419,3469824.2594126724 -2500574.488916107,3469936.359394327 -2500644.862524883,3469986.7818101123 -2500668.2600728334,3470003.756698894" priority="-1" numLanes="1" speed="110.0" allow="rail rail_electric" spreadType="center" />
<edge id="42246-9-re" from="6da98472-f6d5-450d-af0d-1e02bea42246-km-5560.253303703657-in" to="6da98472-f6d5-450d-af0d-1e02bea42246-km-4000-gegen" shape="-2500668.2600728334,3470003.756698894 -2500644.862524883,3469986.7818101123 -2500574.488916107,3469936.359394327 -2500418.802494419,3469824.2594126724 -2500305.0514081763,3469739.8357069865 -2500184.6441849023,3469655.137520615 -2500024.2620206666,3469539.4774315134 -2499607.485439456,3469240.351318307 -2499492.798785879,3469158.6472708173 -2499401.620554218,3469092.7506764457" priority="-1" numLanes="1" speed="110.0" allow="rail rail_electric" spreadType="center" />
<!-- Track 6da98472-f6d5-450d-af0d-1e02bea42246 -->
<edge id="42246-10" from="6da98472-f6d5-450d-af0d-1e02bea42246-km-5560.253303703657-in" to="7467c" shape="-2500668.2600728334,3470003.756698894 -2500688.495537996,3470018.4375009723" priority="-1" numLanes="1" speed="110.0" allow="rail rail_electric" spreadType="center" />