<edges>
<!-- Track a245794e-112c-40a9-956a-4b549fe0c07e -->
<edge id="0c07e-0" from="a8d1e" to="a245794e-112c-40a9-956a-4b549fe0c07e-km-25-gegen" shape="-2502198.1259712474,3467432.6135298666 -2502222.669270449,3467437.370258187" priority="-1" numLanes="1" speed="110.0" allow="rail rail_electric" spreadType="center" />
<edge id="0c07e-0-re" from="a245794e-112c-40a9-956a-4b549fe0c07e-km-25-gegen" to="a8d1e" shape="-2502222.669270449,3467437.370258187 -2502198.1259712474,3467432.6135298666" priority="-1" numLanes="1" speed="110.0" allow="rail rail_electric" spreadType="center" />
<!-- Track a245794e-112c-40a9-956a-4b549fe0c07e -->
<edge id="0c07e-1" from="a245794e-112c-40a9-956a-4b549fe0c07e-km-25-gegen" to="a245794e-112c-40a9-956a-4b549fe0c07e-km-321.5762856547864-in" shape="-2502222.669270449,3467437.370258187 -2502326.879854113,3467457.567275325 -2502513.502873321,3467495.4370743074" priority="-1" numLanes="1" speed="110.0" allow="rail rail_electric" spreadType="center" />
<edge id="0c07e-1-re" from="a245794e-112c-40a9-956a-4b549fe0c07e-km-321.5762856547864-in" to="a245794e-112c-40a9-956a-4b549fe0c07e-km-25-gegen" shape="-2502513.502873321,3467495.4370743074 -2502326.879854113,3467457.567275325 -2502222.669270449,3467437.370258187" priority="-1" numLanes="1" speed="110.0" allow="rail rail_electric" spreadType="center" />
<!-- Track a245794e-112c-40a9-956a-4b549fe0c07e -->
<edge id="0c07e-2" from="a245794e-112c-40a9-956a-4b549fe0c07e-km-321.5762856547864-in" to="7a0a4" shape="-2502513.502873321,3467495.4370743074 -2502538.003529084,3467500.4087809734" priority="-1" numLanes="1" speed="110.0" allow="rail rail_electric" spreadType="center" />
<edge id="0c07e-2-re" from="7a0a4" to="a245794e-112c-40a9-956a-4b549fe0c07e-km-321.5762856547864-in" shape="-2502538.003529084,3467500.4087809734 -2502513.502873321,3467495.4370743074" priority="-1" numLanes="1" speed="110.0" allow="rail rail_electric" spreadType="center" />
<!-- Track d1b4883e-5cad-4d75-9d83-8ef0aff4a178 -->
<edge id="4a178-0" from="a8d1e" to="d1b4883e-5cad-4d75-9d83-8ef0aff4a178-km-25-gegen" shape="-2502198.1259712474,3467432.6135298666 -2502173.6116686147,3467427.7095553116" priority="-1" numLanes="1" speed="110.0" allow="rail rail_electric" spreadType="center" />
<edge id="4a178-0-re" from="d1b4883e-5cad-4d75-9d83-8ef0aff4a178-km-25-gegen" to="a8d1e" shape="-2502173.6116686147,3467427.7095553116 -2502198.1259712474,3467432.6135298666" priority="-1" numLanes="1" speed="110.0" allow="rail rail_electric" spreadType="center" />
<!-- Track d1b4883e-5cad-4d75-9d83-8ef0aff4a178 -->
<edge id="4a178-1" from="d1b4883e-5cad-4d75-9d83-8ef0aff4a178-km-25-gegen" to="d1b4883e-5cad-4d75-9d83-8ef0aff4a178-km-165.5616561823125-in" shape="-2502173.6116686147,3467427.7095553116 -2502035.7808294874,3467400.137123897" priority="-1" numLanes="1" speed="110.0" allow="rail rail_electric" spreadType="center" />
<edge id="4a178-1-re" from="d1b4883e-5cad-4d75-9d83-8ef0aff4a178-km-165.5616561823125-in" to="d1b4883e-5cad-4d75-9d83-8ef0aff4a178-km-25-gegen" shape="-2502035.7808294874,3467400.137123897 -2502173.6116686147,3467427.7095553116" priority="-1" numLanes="1" speed="110.0" allow="rail rail_electric" spreadType="center" />
<!-- Track d1b4883e-5cad-4d75-9d83-8ef0aff4a178 -->
<edge id="4a178-2" from="d1b4883e-5cad-4d75-9d83-8ef0aff4a178-km-165.5616561823125-in" to="ea602" shape="-2502035.7808294874,3467400.137123897 -2502011.2665268546,3467395.2331493422" priority="-1" numLanes="1" speed="110.0" allow="rail rail_electric" spreadType="center" />
<edge id="4a178-2-re" from="ea602" to="d1b4883e-5cad-4d75-9d83-8ef0aff4a178-km-165.5616561823125-in" shape="-2502011.2665268546,3467395.2331493422 -2502035.7808294874,3467400.137123897" priority="-1" numLanes="1" speed="110.0" allow="rail rail_electric" spreadType="center" />
<!-- Track 4cf1bf60-e364-4812-aae2-fff6f32aea0c -->
<edge id="aea0c-0" from="a8d1e" to="4cf1bf60-e364-4812-aae2-fff6f32aea0c-km-25-gegen" shape="-2502198.1259712474,3467432.6135298666 -2502173.3051357637,3467429.6258675884" priority="-1" numLanes="1" speed="110.0" allow="rail rail_electric" spreadType="center" />
<edge id="aea0c-0-re" from="4cf1bf60-e364-4812-aae2-fff6f32aea0c-km-25-gegen" to="a8d1e" shape="-2502173.3051357637,3467429.6258675884 -2502198.1259712474,3467432.6135298666" priority="-1" numLanes="1" speed="110.0" allow="rail rail_electric" spreadType="center" />
<!-- Track 4cf1bf60-e364-4812-aae2-fff6f32aea0c -->
<edge id="aea0c-1" from="4cf1bf60-e364-4812-aae2-fff6f32aea0c-km-25-gegen" to="4cf1bf60-e364-4812-aae2-fff6f32aea0c-km-852.2588211144425-in" shape="-2502173.3051357637,3467429.6258675884 -2501986.5440240223,3467407.1455957647 -2501941.394594235,3467406.669230707 -2501900.14020605,3467408.084832847 -2501830.2628213717,3467412.3299855366 -2501757.781161777,3467419.529616246 -2501699.9119592384,3467418.698338378 -2501637.2374989176,3467415.157012349 -2501580.245985288,3467407.526348047 -2501352.99611748,3467362.206877052" priority="-1" numLanes="1" speed="110.0" allow="rail rail_electric" spreadType="center" />
<edge id="aea0c-1-re" from="4cf1bf60-e364-4812-aae2-fff6f32aea0c-km-852.2588211144425-in" to="4cf1bf60-e364-4812-aae2-fff6f32aea0c-km-25-gegen" shape="-2501352.99611748,3467362.206877052 -2501580.245985288,3467407.526348047 -2501637.2374989176,3467415.157012349 -2501699.9119592384,3467418.698338378 -2501757.781161777,3467419.529616246 -2501830.2628213717,3467412.3299855366 -2501900.14020605,3467408.084832847 -2501941.394594235,3467406.669230707 -2501986.5440240223,3467407.1455957647 -2502173.3051357637,3467429.6258675884" priority="-1" numLanes="1" speed="110.0" allow="rail rail_electric" spreadType="center" />
<!-- Track 4cf1bf60-e364-4812-aae2-fff6f32aea0c -->
<edge id="aea0c-2" from="4cf1bf60-e364-4812-aae2-fff6f32aea0c-km-852.2588211144425-in" to="91b39" shape="-2501352.99611748,3467362.206877052 -2501328.4788967334,3467357.3175123837" priority="-1" numLanes="1" speed="110.0" allow="rail rail_electric" spreadType="center" />
<edge id="aea0c-2-re" from="91b39" to="4cf1bf60-e364-4812-aae2-fff6f32aea0c-km-852.2588211144425-in" shape="-2501328.4788967334,3467357.3175123837 -2501352.99611748,3467362.206877052" priority="-1" numLanes="1" speed="110.0" allow="rail rail_electric" spreadType="center" />
<!-- Track ff5d2ccc-5934-4c98-9d85-688d0a850b1b -->
<edge id="50b1b-0" from="ea602" to="ff5d2ccc-5934-4c98-9d85-688d0a850b1b-km-25-gegen" shape="-2502011.2665268546,3467395.2331493422 -2501986.4846162554,3467391.938167242" priority="-1" numLanes="1" speed="110.0" allow="rail rail_electric" spreadType="center" />
<edge id="50b1b-0-re" from="ff5d2ccc-5934-4c98-9d85-688d0a850b1b-km-25-gegen" to="ea602" shape="-2501986.4846162554,3467391.938167242 -2502011.2665268546,3467395.2331493422" priority="-1" numLanes="1" speed="110.0" allow="rail rail_electric" spreadType="center" />
<!-- Track ff5d2ccc-5934-4c98-9d85-688d0a850b1b -->
<edge id="50b1b-1" from="ff5d2ccc-5934-4c98-9d85-688d0a850b1b-km-25-gegen" to="ff5d2ccc-5934-4c98-9d85-688d0a850b1b-km-788.1457216628645-in" shape="-2501986.4846162554,3467391.938167242 -2501902.187891895,3467380.730145294 -2501866.152929621,3467378.21362713 -2501673.0765554016,3467367.3538590707 -2501592.416926997,3467359.140942909 -2501551.447303158,3467353.074182581 -2501505.253120913,3467345.780980693 -2501231.263445984,3467291.352738634" priority="-1" numLanes="1" speed="110.0" allow="rail rail_electric" spreadType="center" />
<edge id="50b1b-1-re" from="ff5d2ccc-5934-4c98-9d85-688d0a850b1b-km-788.1457216628645-in" to="ff5d2ccc-5934-4c98-9d85-688d0a850b1b-km-25-gegen" shape="-2501231.263445984,3467291.352738634 -2501505.253120913,3467345.780980693 -2501551.447303158,3467353.074182581 -2501592.416926997,3467359.140942909 -2501673.0765554016,3467367.3538590707 -2501866.152929621,3467378.21362713 -2501902.187891895,3467380.730145294 -2501986.4846162554,3467391.938167242" priority="-1" numLanes="1" speed="110.0" allow="rail rail_electric" spreadType="center" />
<!-- Track ff5d2ccc-5934-4c98-9d85-688d0a850b1b -->
<edge id="50b1b-2" from="ff5d2ccc-5934-4c98-9d85-688d0a850b1b-km-788.1457216628645-in" to="2d5b6" shape="-2501231.263445984,3467291.352738634 -2501206.7425870663,3467286.4816527255" priority="-1" numLanes="1" speed="110.0" allow="rail rail_electric" spreadType="center" />
<edge id="50b1b-2-re" from="2d5b6" to="ff5d2ccc-5934-4c98-9d85-688d0a850b1b-km-788.1457216628645-in" shape="-2501206.7425870663,3467286.4816527255 -2501231.263445984,3467291.352738634" priority="-1" numLanes="1" speed="110.0" allow="rail rail_electric" spreadType="center" />
<!-- Track ec58409d-d2bf-4739-82c8-ec45fb303df7 -->
<edge id="03df7-0" from="ea602" to="ec58409d-d2bf-4739-82c8-ec45fb303df7-km-25-gegen" shape="-2502011.2665268546,3467395.2331493422 -2501986.867727038,3467389.7835101327" priority="-1" numLanes="1" speed="110.0" allow="rail rail_electric" spreadType="center" />
<edge id="03df7-0-re" from="ec58409d-d2bf-4739-82c8-ec45fb303df7-km-25-gegen" to="ea602" shape="-2501986.867727038,3467389.7835101327 -2502011.2665268546,3467395.2331493422" priority="-1" numLanes="1" speed="110.0" allow="rail rail_electric" spreadType="center" />
<!-- Track ec58409d-d2bf-4739-82c8-ec45fb303df7 -->
<edge id="03df7-1" from="ec58409d-d2bf-4739-82c8-ec45fb303df7-km-25-gegen" to="ec58409d-d2bf-4739-82c8-ec45fb303df7-km-238.52550007798908-in" shape="-2501986.867727038,3467389.7835101327 -2501807.904326056,3467349.8108076043 -2501778.5806097006,3467342.790603453" priority="-1" numLanes="1" speed="110.0" allow="rail rail_electric" spreadType="center" />
<edge id="03df7-1-re" from="ec58409d-d2bf-4739-82c8-ec45fb303df7-km-238.52550007798908-in" to="ec58409d-d2bf-4739-82c8-ec45fb303df7-km-25-gegen" shape="-2501778.5806097006,3467342.790603453 -2501807.904326056,3467349.8108076043 -2501986.867727038,3467389.7835101327" priority="-1" numLanes="1" speed="110.0" allow="rail rail_electric" spreadType="center" />
<!-- Track ec58409d-d2bf-4739-82c8-ec45fb303df7 -->
<edge id="03df7-2" from="ec58409d-d2bf-4739-82c8-ec45fb303df7-km-238.52550007798908-in" to="69942" shape="-2501778.5806097006,3467342.790603453 -2501754.2676406577,3467336.9699903987" priority="-1" numLanes="1" speed="110.0" allow="rail rail_electric" spreadType="center" />
<edge id="03df7-2-re" from="69942" to="ec58409d-d2bf-4739-82c8-ec45fb303df7-km-238.52550007798908-in" shape="-2501754.2676406577,3467336.9699903987 -2501778.5806097006,3467342.790603453" priority="-1" numLanes="1" speed="110.0" allow="rail rail_electric" spreadType="center" />
<!-- Track daf4f78c-efef-4369-8422-65aa2aa2fb5c -->
<edge id="2fb5c-0" from="2d5b6" to="daf4f78c-efef-4369-8422-65aa2aa2fb5c-km-25-gegen" shape="-2501206.7425870663,3467286.4816527255 -2501182.2386736786,3467281.5260267616" priority="-1" numLanes="1" speed="110.0" allow="rail rail_electric" spreadType="center" />
<edge id="2fb5c-0-re" from="daf4f78c-efef-4369-8422-65aa2aa2fb5c-km-25-gegen" to="2d5b6" shape="-2501182.2386736786,3467281.5260267616 -2501206.7425870663,3467286.4816527255" priority="-1" numLanes="1" speed="110.0" allow="rail rail_electric" spreadType="center" />
<!-- Track daf4f78c-efef-4369-8422-65aa2aa2fb5c -->
<edge id="2fb5c-1" from="daf4f78c-efef-4369-8422-65aa2aa2fb5c-km-25-gegen" to="daf4f78c-efef-4369-8422-65aa2aa2fb5c-km-169.7673894741766-in" shape="-2501182.2386736786,3467281.5260267616 -2501040.343970758,3467252.8295054003" priority="-1" numLanes="1" speed="110.0" allow="rail rail_electric" spreadType="center" />
<edge id="2fb5c-1-re" from="daf4f78c-efef-4369-8422-65aa2aa2fb5c-km-169.7673894741766-in" to="daf4f78c-efef-4369-8422-65aa2aa2fb5c-km-25-gegen" shape="-2501040.343970758,3467252.8295054003 -2501182.2386736786,3467281.5260267616" priority="-1" numLanes="1" speed="110.0" allow="rail rail_electric" spreadType="center" />
<!-- Track daf4f78c-efef-4369-8422-65aa2aa2fb5c -->
<edge id="2fb5c-2" from="daf4f78c-efef-4369-8422-65aa2aa2fb5c-km-169.7673894741766-in" to="8ee11" shape="-2501040.343970758,3467252.8295054003 -2501015.8400573703,3467247.8738794364" priority="-1" numLanes="1" speed="110.0" allow="rail rail_electric" spreadType="center" />
<edge id="2fb5c-2-re" from="8ee11" to="daf4f78c-efef-4369-8422-65aa2aa2fb5c-km-169.7673894741766-in" shape="-2501015.8400573703,3467247.8738794364 -2501040.343970758,3467252.8295054003" priority="-1" numLanes="1" speed="110.0" allow="rail rail_electric" spreadType="center" />
<!-- Track 1dc18653-4164-4d1b-83ec-afb4a030e173 -->
<edge id="0e173-0" from="2d5b6" to="1dc18653-4164-4d1b-83ec-afb4a030e173-km-25-gegen" shape="-2501206.7425870663,3467286.4816527255 -2501231.489801964,3467290.0278274002" priority="-1" numLanes="1" speed="110.0" allow="rail rail_electric" spreadType="center" />
<edge id="0e173-0-re" from="1dc18653-4164-4d1b-83ec-afb4a030e173-km-25-gegen" to="2d5b6" shape="-2501231.489801964,3467290.0278274002 -2501206.7425870663,3467286.4816527255" priority="-1" numLanes="1" speed="110.0" allow="rail rail_electric" spreadType="center" />
<!-- Track 1dc18653-4164-4d1b-83ec-afb4a030e173 -->
<edge id="0e173-1" from="1dc18653-4164-4d1b-83ec-afb4a030e173-km-25-gegen" to="43e63" shape="-2501231.489801964,3467290.0278274002 -2501292.2642674847,3467298.736559732 -2501351.8286421327,3467306.9248945564 -2501777.896236745,3467364.0153826177" priority="-1" numLanes="1" speed="110.0" allow="rail rail_electric" spreadType="center" />
<edge id="0e173-1-re" from="43e63" to="1dc18653-4164-4d1b-83ec-afb4a030e173-km-25-gegen" shape="-2501777.896236745,3467364.0153826177 -2501351.8286421327,3467306.9248945564 -2501292.2642674847,3467298.736559732 -2501231.489801964,3467290.0278274002" priority="-1" numLanes="1" speed="110.0" allow="rail rail_electric" spreadType="center" />
<!-- Track 810470e8-fc76-4307-ba48-1d916e91d191 -->
<edge id="1d191-0" from="8ee11" to="810470e8-fc76-4307-ba48-1d916e91d191-km-25-gegen" shape="-2501015.8400573703,3467247.8738794364 -2500991.319573685,3467243.0009050015" priority="-1" numLanes="1" speed="110.0" allow="rail rail_electric" spreadType="center" />
<edge id="1d191-0-re" from="810470e8-fc76-4307-ba48-1d916e91d191-km-25-gegen" to="8ee11" shape="-2500991.319573685,3467243.0009050015 -2501015.8400573703,3467247.8738794364" priority="-1" numLanes="1" speed="110.0" allow="rail rail_electric" spreadType="center" />
<!-- Track 810470e8-fc76-4307-ba48-1d916e91d191 -->
<edge id="1d191-1" from="810470e8-fc76-4307-ba48-1d916e91d191-km-25-gegen" to="810470e8-fc76-4307-ba48-1d916e91d191-km-684.7733628877847-in" shape="-2500991.319573685,3467243.0009050015 -2500344.2010944607,3467114.398555789" priority="-1" numLanes="1" speed="110.0" allow="rail rail_electric" spreadType="center" />
<edge id="1d191-1-re" from="810470e8-fc76-4307-ba48-1d916e91d191-km-684.7733628877847-in" to="810470e8-fc76-4307-ba48-1d916e91d191-km-25-gegen" shape="-2500344.2010944607,3467114.398555789 -2500991.319573685,3467243.0009050015" priority="-1" numLanes="1" speed="110.0" allow="rail rail_electric" spreadType="center" />
<!-- Track 810470e8-fc76-4307-ba48-1d916e91d191 -->
<edge id="1d191-2" from="810470e8-fc76-4307-ba48-1d916e91d191-km-684.7733628877847-in" to="5caae" shape="-2500344.2010944607,3467114.398555789 -2500319.680610776,3467109.5255813543" priority="-1" numLanes="1" speed="110.0" allow="rail rail_electric" spreadType="center" />
<edge id="1d191-2-re" from="5caae" to="810470e8-fc76-4307-ba48-1d916e91d191-km-684.7733628877847-in" shape="-2500319.680610776,3467109.5255813543 -2500344.2010944607,3467114.398555789" priority="-1" numLanes="1" speed="110.0" allow="rail rail_electric" spreadType="center" />
<!-- Track 08bb0881-fbe8-4c58-a599-178c9804a20c -->
<edge id="4a20c-0" from="8ee11" to="08bb0881-fbe8-4c58-a599-178c9804a20c-km-25-gegen" shape="-2501015.8400573703,3467247.8738794364 -2501040.129426962,3467253.792200551" priority="-1" numLanes="1" speed="110.0" allow="rail rail_electric" spreadType="center" />
<edge id="4a20c-0-re" from="08bb0881-fbe8-4c58-a599-178c9804a20c-km-25-gegen" to="8ee11" shape="-2501040.129426962,3467253.792200551 -2501015.8400573703,3467247.8738794364" priority="-1" numLanes="1" speed="110.0" allow="rail rail_electric" spreadType="center" />
<!-- Track 08bb0881-fbe8-4c58-a599-178c9804a20c -->
<edge id="4a20c-1" from="08bb0881-fbe8-4c58-a599-178c9804a20c-km-25-gegen" to="2dba1" shape="-2501040.129426962,3467253.792200551 -2501115.083613891,3467272.0554554053 -2501236.739845654,3467305.6705410834 -2501274.012567208,3467312.6615284346 -2501684.7521156543,3467394.7215760183" priority="-1" numLanes="1" speed="110.0" allow="rail rail_electric" spreadType="center" />
<edge id="4a20c-1-re" from="2dba1" to="08bb0881-fbe8-4c58-a599-178c9804a20c-km-25-gegen" shape="-2501684.7521156543,3467394.7215760183 -2501274.012567208,3467312.6615284346 -2501236.739845654,3467305.6705410834 -2501115.083613891,3467272.0554554053 -2501040.129426962,3467253.792200551" priority="-1" numLanes="1" speed="110.0" allow="rail rail_electric" spreadType="center" />
<!-- Track c05f1553-3b63-4906-a39f-270d9ac79b5a -->
<edge id="79b5a-0" from="dab47" to="c05f1553-3b63-4906-a39f-270d9ac79b5a-km-25-gegen" shape="-2498540.5476426897,3466763.493575601 -2498516.147492651,3466758.0499850498" priority="-1" numLanes="1" speed="110.0" allow="rail rail_electric" spreadType="center" />
<edge id="79b5a-0-re" from="c05f1553-3b63-4906-a39f-270d9ac79b5a-km-25-gegen" to="dab47" shape="-2498516.147492651,3466758.0499850498 -2498540.5476426897,3466763.493575601" priority="-1" numLanes="1" speed="110.0" allow="rail rail_electric" spreadType="center" />
<!-- Track c05f1553-3b63-4906-a39f-270d9ac79b5a -->
<edge id="79b5a-1" from="c05f1553-3b63-4906-a39f-270d9ac79b5a-km-25-gegen" to="c05f1553-3b63-4906-a39f-270d9ac79b5a-km-254.45431792963808-in" shape="-2498516.147492651,3466758.0499850498 -2498402.661352981,3466732.7316129655 -2498329.9658797192,3466713.124746185 -2498293.0708839176,3466704.520165761" priority="-1" numLanes="1" speed="110.0" allow="rail rail_electric" spreadType="center" />
<edge id="79b5a-1-re" from="c05f1553-3b63-4906-a39f-270d9ac79b5a-km-254.45431792963808-in" to="c05f1553-3b63-4906-a39f-270d9ac79b5a-km-25-gegen" shape="-2498293.0708839176,3466704.520165761 -2498329.9658797192,3466713.124746185 -2498402.661352981,3466732.7316129655 -2498516.147492651,3466758.0499850498" priority="-1" numLanes="1" speed="110.0" allow="rail rail_electric" spreadType="center" />
<!-- Track c05f1553-3b63-4906-a39f-270d9ac79b5a -->
<edge id="79b5a-2" from="c05f1553-3b63-4906-a39f-270d9ac79b5a-km-254.45431792963808-in" to="21316" shape="-2498293.0708839176,3466704.520165761 -2498268.7242329344,3466698.8420863394" priority="-1" numLanes="1" speed="110.0" allow="rail rail_electric" spreadType="center" />
<edge id="79b5a-2-re" from="21316" to="c05f1553-3b63-4906-a39f-270d9ac79b5a-km-254.45431792963808-in" shape="-2498268.7242329344,3466698.8420863394 -2498293.0708839176,3466704.520165761" priority="-1" numLanes="1" speed="110.0" allow="rail rail_electric" spreadType="center" />
<!-- Track c4054ba1-8c79-4445-9524-6bc987a2bb59 -->
<edge id="2bb59-0" from="dab47" to="abf50" shape="-2498540.5476426897,3466763.493575601 -2498576.533874395,3466770.6508105323" priority="-1" numLanes="1" speed="110.0" allow="rail rail_electric" spreadType="center" />
<edge id="2bb59-0-re" from="abf50" to="dab47" shape="-2498576.533874395,3466770.6508105323 -2498540.5476426897,3466763.493575601" priority="-1" numLanes="1" speed="110.0" allow="rail rail_electric" spreadType="center" />
<!-- Track 5157e5d8-5a28-4fdc-9ea0-cd4a77eed4f0 -->
<edge id="ed4f0-0" from="dab47" to="5157e5d8-5a28-4fdc-9ea0-cd4a77eed4f0-km-25-gegen" shape="-2498540.5476426897,3466763.493575601 -2498515.754955294,3466760.2806872274" priority="-1" numLanes="1" speed="110.0" allow="rail rail_electric" spreadType="center" />
<edge id="ed4f0-0-re" from="5157e5d8-5a28-4fdc-9ea0-cd4a77eed4f0-km-25-gegen" to="dab47" shape="-2498515.754955294,3466760.2806872274 -2498540.5476426897,3466763.493575601" priority="-1" numLanes="1" speed="110.0" allow="rail rail_electric" spreadType="center" />
<!-- Track 5157e5d8-5a28-4fdc-9ea0-cd4a77eed4f0 -->
<edge id="ed4f0-1" from="5157e5d8-5a28-4fdc-9ea0-cd4a77eed4f0-km-25-gegen" to="5157e5d8-5a28-4fdc-9ea0-cd4a77eed4f0-km-1000-in" shape="-2498515.754955294,3466760.2806872274 -2498252.6826554104,3466726.1891052946 -2498197.4809421357,3466721.890851874 -2498139.0232320046,3466720.7062249817 -2498060.3311859164,3466723.9792294167 -2497982.494693488,3466733.0181929395 -2497909.9296493446,3466748.156458294 -2497850.3497261205,3466766.0617731884 -2497809.3890527356,3466783.1006195005 -2497777.617311281,3466798.021042254 -2497757.6510621565,3466807.115437001 -2497727.259331015,3466826.298858639 -2497702.7541591264,3466844.8849410564 -2497672.7244021073,3466868.5284555852 -2497638.2983654123,3466909.567890471 -2497615.443567487,3466945.4508802867" priority="-1" numLanes="1" speed="110.0" allow="rail rail_electric" spreadType="center" />
<edge id="ed4f0-1-re" from="5157e5d8-5a28-4fdc-9ea0-cd4a77eed4f0-km-1000-in" to="5157e5d8-5a28-4fdc-9ea0-cd4a77eed4f0-km-25-gegen" shape="-2497615.443567487,3466945.4508802867 -2497638.2983654123,3466909.567890471 -2497672.7244021073,3466868.5284555852 -2497702.7541591264,3466844.8849410564 -2497727.259331015,3466826.298858639 -2497757.6510621565,3466807.115437001 -2497777.617311281,3466798.021042254 -2497809.3890527356,3466783.1006195005 -2497850.3497261205,3466766.0617731884 -2497909.9296493446,3466748.156458294 -2497982.494693488,3466733.0181929395 -2498060.3311859164,3466723.9792294167 -2498139.0232320046,3466720.7062249817 -2498197.4809421357,3466721.890851874 -2498252.6826554104,3466726.1891052946 -2498515.754955294,3466760.2806872274" priority="-1" numLanes="1" speed="110.0" allow="rail rail_electric" spreadType="center" />
<!-- Track 5157e5d8-5a28-4fdc-9ea0-cd4a77eed4f0 -->
<edge id="ed4f0-2" from="5157e5d8-5a28-4fdc-9ea0-cd4a77eed4f0-km-1000-in" to="5157e5d8-5a28-4fdc-9ea0-cd4a77eed4f0-km-1000-gegen" shape="-2497615.443567487,3466945.4508802867 -2497615.443567487,3466945.4508802867" priority="-1" numLanes="1" speed="110.0" allow="rail rail_electric" spreadType="center" />
<edge id="ed4f0-2-re" from="5157e5d8-5a28-4fdc-9ea0-cd4a77eed4f0-km-1000-gegen" to="5157e5d8-5a28-4fdc-9ea0-cd4a77eed4f0-km-1000-in" shape="-2497615.443567487,3466945.4508802867 -2497615.443567487,3466945.4508802867" priority="-1" numLanes="1" speed="110.0" allow="rail rail_electric" spreadType="center" />
<!-- Track 5157e5d8-5a28-4fdc-9ea0-cd4a77eed4f0 -->
<edge id="ed4f0-3" from="5157e5d8-5a28-4fdc-9ea0-cd4a77eed4f0-km-1000-gegen" to="5157e5d8-5a28-4fdc-9ea0-cd4a77eed4f0-km-2000-in" shape="-2497615.443567487,3466945.4508802867 -2497613.251409583,3466948.8926599957 -2497593.607536464,3466989.272440452 -2497575.081284268,3467046.9352106173 -2497569.9086821945,3467066.77810714 -2497563.7344133407,3467105.9624592084 -2497557.5013369834,3467146.900458861 -2497556.054178887,3467193.9233511053 -2497556.2335239397,3467236.880963335 -2497560.396947277,3467302.475907631 -2497575.6325155986,3467387.626045577 -2497591.9254659587,3467452.6755200922 -2497624.940307323,3467543.711189067 -2497663.9474137807,3467628.1184534803 -2497712.753345648,3467713.11196517 -2497760.352298308,3467784.1246131547 -2497825.0446568336,3467867.2288087048 -2497825.6623152806,3467867.93357421" priority="-1" numLanes="1" speed="110.0" allow="rail rail_electric" spreadType="center" />
<edge id="ed4f0-3-re" from="5157e5d8-5a28-4fdc-9ea0-cd4a77eed4f0-km-2000-in" to="5157e5d8-5a28-4fdc-9ea0-cd4a77eed4f0-km-1000-gegen" shape="-2497825.6623152806,3467867.93357421 -2497825.0446568336,3467867.2288087048 -2497760.352298308,3467784.1246131547 -2497712.753345648,3467713.11196517 -2497663.9474137807,3467628.1184534803 -2497624.940307323,3467543.711189067 -2497591.9254659587,3467452.6755200922 -2497575.6325155986,3467387.626045577 -2497560.396947277,3467302.475907631 -2497556.2335239397,3467236.880963335 -2497556.054178887,3467193.9233511053 -2497557.5013369834,3467146.900458861 -2497563.7344133407,3467105.9624592084 -2497569.9086821945,3467066.77810714 -2497575.081284268,3467046.9352106173 -2497593.607536464,3466989.272440452 -2497613.251409583,3466948.8926599957 -2497615.443567487,3466945.4508802867" priority="-1" numLanes="1" speed="110.0" allow="rail rail_electric" spreadType="center" />
<!-- Track 5157e5d8-5a28-4fdc-9ea0-cd4a77eed4f0 -->
<edge id="ed4f0-4" from="5157e5d8-5a28-4fdc-9ea0-cd4a77eed4f0-km-2000-in" to="5157e5d8-5a28-4fdc-9ea0-cd4a77eed4f0-km-2000-gegen" shape="-2497825.6623152806,3467867.93357421 -2497825.6623152806,3467867.93357421" priority="-1" numLanes="1" speed="110.0" allow="rail rail_electric" spreadType="center" />
<edge id="ed4f0-4-re" from="5157e5d8-5a28-4fdc-9ea0-cd4a77eed4f0-km-2000-gegen" to="5157e5d8-5a28-4fdc-9ea0-cd4a77eed4f0-km-2000-in" shape="-2497825.6623152806,3467867.93357421 -2497825.6623152806,3467867.93357421" priority="-1" numLanes="1" speed="110.0" allow="rail rail_electric" spreadType="center" />
<!-- Track 5157e5d8-5a28-4fdc-9ea0-cd4a77eed4f0 -->
<edge id="ed4f0-5" from="5157e5d8-5a28-4fdc-9ea0-cd4a77eed4f0-km-2000-gegen" to="5157e5d8-5a28-4fdc-9ea0-cd4a77eed4f0-km-3000-in" shape="-2497825.6623152806,3467867.93357421 -2497882.947905049,3467933.2980289906 -2497954.1841731174,3468006.7474954054 -2498048.3906442933,3468092.7958315127 -2498147.851398303,3468178.256744899 -2498263.9241143996,3468270.6784133688 -2498342.1996997884,3468330.467676915 -2498420.8086415282,3468386.541345766 -2498589.5858431384,3468509.150828742" priority="-1" numLanes="1" speed="110.0" allow="rail rail_electric" spreadType="center" />
<edge id="ed4f0-5-re" from="5157e5d8-5a28-4fdc-9ea0-cd4a77eed4f0-km-3000-in" to="5157e5d8-5a28-4fdc-9ea0-cd4a77eed4f0-km-2000-gegen" shape="-2498589.5858431384,3468509.150828742 -2498420.8086415282,3468386.541345766 -2498342.1996997884,3468330.467676915 -2498263.9241143996,3468270.6784133688 -2498147.851398303,3468178.256744899 -2498048.3906442933,3468092.7958315127 -2497954.1841731174,3468006.7474954054 -2497882.947905049,3467933.2980289906 -2497825.6623152806,3467867.93357421" priority="-1" numLanes="1" speed="110.0" allow="rail rail_electric" spreadType="center" />
<!-- Track 5157e5d8-5a28-4fdc-9ea0-cd4a77eed4f0 -->
<edge id="ed4f0-6" from="5157e5d8-5a28-4fdc-9ea0-cd4a77eed4f0-km-3000-in" to="5157e5d8-5a28-4fdc-9ea0-cd4a77eed4f0-km-3000-gegen" shape="-2498589.5858431384,3468509.150828742 -2498589.5858431384,3468509.150828742" priority="-1" numLanes="1" speed="110.0" allow="rail rail_electric" spreadType="center" />
<edge id="ed4f0-6-re" from="5157e5d8-5a28-4fdc-9ea0-cd4a77eed4f0-km-3000-gegen" to="5157e5d8-5a28-4fdc-9ea0-cd4a77eed4f0-km-3000-in" shape="-2498589.5858431384,3468509.150828742 -2498589.5858431384,3468509.150828742" priority="-1" numLanes="1" speed="110.0" allow="rail rail_electric" spreadType="center" />
<!-- Track 5157e5d8-5a28-4fdc-9ea0-cd4a77eed4f0 -->
<edge id="ed4f0-7" from="5157e5d8-5a28-4fdc-9ea0-cd4a77eed4f0-km-3000-gegen" to="5157e5d8-5a28-4fdc-9ea0-cd4a77eed4f0-km-4000-in" shape="-2498589.5858431384,3468509.150828742 -2498652.2203915613,3468554.6521732677 -2499030.1810028283,3468824.3028133363 -2499401.620554218,3469092.7506764457" priority="-1" numLanes="1" speed="110.0" allow="rail rail_electric" spreadType="center" />
<edge id="ed4f0-7-re" from="5157e5d8-5a28-4fdc-9ea0-cd4a77eed4f0-km-4000-in" to="5157e5d8-5a28-4fdc-9ea0-cd4a77eed4f0-km-3000-gegen" shape="-2499401.620554218,3469092.7506764457 -2499030.1810028283,3468824.3028133363 -2498652.2203915613,3468554.6521732677 -2498589.5858431384,3468509.150828742" priority="-1" numLanes="1" speed="110.0" allow="rail rail_electric" spreadType="center" />
<!-- Track 5157e5d8-5a28-4fdc-9ea0-cd4a77eed4f0 -->
<edge id="ed4f0-8" from="5157e5d8-5a28-4fdc-9ea0-cd4a77eed4f0-km-4000-in" to="5157e5d8-5a28-4fdc-9ea0-cd4a77eed4f0-km-4000-gegen" shape="-2499401.620554218,3469092.7506764457 -2499401.620554218,3469092.7506764457" priority="-1" numLanes="1" speed="110.0" allow="rail rail_electric" spreadType="center" />
<edge id="ed4f0-8-re" from="5157e5d8-5a28-4fdc-9ea0-cd4a77eed4f0-km-4000-gegen" to="5157e5d8-5a28-4fdc-9ea0-cd4a77eed4f0-km-4000-in" shape="-2499401.620554218,3469092.7506764457 -2499401.620554218,3469092.7506764457" priority="-1" numLanes="1" speed="110.0" allow="rail rail_electric" spreadType="center" />
<!-- Track 5157e5d8-5a28-4fdc-9ea0-cd4a77eed4f0 -->
<edge id="ed4f0-9" from="5157e5d8-5a28-4fdc-9ea0-cd4a77eed4f0-km-4000-gegen" to="5157e5d8-5a28-4fdc-9ea0-cd4a77eed4f0-km-5560.253303703657-in" shape="-2499401.620554218,3469092.7506764457 -2499492.798785879,3469158.6472708173 -2499607.485439456,3469240.351318307 -2500024.2620206666,3469539.4774315134 -2500184.6441849023,3469655.137520615 -2500305.0514081763,3469739.8357069865 -2500418.802494419,3469824.2594126724 -2500574.488916107,3469936.359394327 -2500644.862524883,3469986.7818101123 -2500668.2600728334,3470003.756698894" priority="-1" numLanes="1" speed="110.0" allow="rail rail_electric" spreadType="center" />
<edge id="ed4f0-9-re" from="5157e5d8-5a28-4fdc-9ea0-cd4a77eed4f0-km-5560.253303703657-in" to="5157e5d8-5a28-4fdc-9ea0-cd4a77eed4f0-km-4000-gegen" shape="-2500668.2600728334,3470003.756698894 -2500644.862524883,3469986.7818101123 -2500574.488916107,3469936.359394327 -2500418.802494419,3469824.2594126724 -2500305.0514081763,3469739.8357069865 -2500184.6441849023,3469655.137520615 -2500024.2620206666,3469539.4774315134 -2499607.485439456,3469240.351318307 -2499492.798785879,3469158.6472708173 -2499401.620554218,3469092.7506764457" priority="-1" numLanes="1" speed="110.0" allow="rail rail_electric" spreadType="center" />
<!-- Track 5157e5d8-5a28-4fdc-9ea0-cd4a77eed4f0 -->
<edge id="ed4f0-10" from="5157e5d8-5a28-4fdc-9ea0-cd4a77eed4f0-km-5560.253303703657-in" to="c0791" shape="-2500668.2600728334,3470003.756698894 -2500688.495537996,3470018.4375009723" priority="-1" numLanes="1" speed="110.0" allow="rail rail_electric" spreadType="center" />