<?xml version="1.0" encoding="UTF-8"?>

<!-- generated on 2023-05-16 11:22:36 by Eclipse SUMO netconvert Version 1.12.0
<configuration xmlns:xsi="http://www.w3.org/2001/XMLSchema-instance" xsi:noNamespaceSchemaLocation="http://sumo.dlr.de/xsd/netconvertConfiguration.xsd">

    <input>
        <node-files value="sumo-config/schwarze_pumpe_v1.nod.xml"/>
        <edge-files value="sumo-config/schwarze_pumpe_v1.edg.xml"/>
        <connection-files value="sumo-config/schwarze_pumpe_v1.con.xml"/>
    </input>

    <output>
        <output-file value="sumo-config/schwarze_pumpe_v1.net.xml"/>
    </output>

    <railway>
        <railway.topology.repair value="true"/>
        <railway.topology.repair.connect-straight value="true"/>
        <railway.topology.repair.stop-turn value="true"/>
        <railway.topology.all-bidi value="false"/>
    </railway>

    <report>
        <aggregate-warnings value="5"/>
    </report>

</configuration>
-->

<net version="1.9" junctionCornerDetail="5" limitTurnSpeed="5.50" xmlns:xsi="http://www.w3.org/2001/XMLSchema-instance" xsi:noNamespaceSchemaLocation="http://sumo.dlr.de/xsd/net_file.xsd">

    <location netOffset="2506174.81,-3459405.32" convBoundary="0.00,0.00,12719.19,11737.42" origBoundary="-2506174.81,3459405.32,-2493455.62,3471142.74" projParameter="!"/>

    <edge id=":0053ea83-f3d7-44b6-92e4-c0bab3e3dbef-km-183.74952272789886-in_0" function="internal" bidi=":0053ea83-f3d7-44b6-92e4-c0bab3e3dbef-km-183.74952272789886-in_1">
        <lane id=":0053ea83-f3d7-44b6-92e4-c0bab3e3dbef-km-183.74952272789886-in_0_0" index="0" allow="rail rail_electric" speed="110.00" length="0.10" shape="4099.79,7229.89 4099.79,7229.89"/>
    </edge>
    <edge id=":0053ea83-f3d7-44b6-92e4-c0bab3e3dbef-km-183.74952272789886-in_1" function="internal" bidi=":0053ea83-f3d7-44b6-92e4-c0bab3e3dbef-km-183.74952272789886-in_0">
        <lane id=":0053ea83-f3d7-44b6-92e4-c0bab3e3dbef-km-183.74952272789886-in_1_0" index="0" allow="rail rail_electric" speed="110.00" length="0.10" shape="4099.79,7229.89 4099.79,7229.89"/>
    </edge>
    <edge id=":0053ea83-f3d7-44b6-92e4-c0bab3e3dbef-km-25-gegen_0" function="internal" bidi=":0053ea83-f3d7-44b6-92e4-c0bab3e3dbef-km-25-gegen_1">
        <lane id=":0053ea83-f3d7-44b6-92e4-c0bab3e3dbef-km-25-gegen_0_0" index="0" allow="rail rail_electric" speed="110.00" length="0.10" shape="4130.33,7385.67 4130.33,7385.67"/>
    </edge>
    <edge id=":0053ea83-f3d7-44b6-92e4-c0bab3e3dbef-km-25-gegen_1" function="internal" bidi=":0053ea83-f3d7-44b6-92e4-c0bab3e3dbef-km-25-gegen_0">
        <lane id=":0053ea83-f3d7-44b6-92e4-c0bab3e3dbef-km-25-gegen_1_0" index="0" allow="rail rail_electric" speed="110.00" length="0.10" shape="4130.33,7385.67 4130.33,7385.67"/>
    </edge>
    <edge id=":007a3d9b-9e24-4439-8132-05f53d206387-km-25-gegen_0" function="internal" bidi=":007a3d9b-9e24-4439-8132-05f53d206387-km-25-gegen_1">
        <lane id=":007a3d9b-9e24-4439-8132-05f53d206387-km-25-gegen_0_0" index="0" allow="rail rail_electric" speed="110.00" length="0.10" shape="3778.29,7207.50 3778.29,7207.50"/>
    </edge>
    <edge id=":007a3d9b-9e24-4439-8132-05f53d206387-km-25-gegen_1" function="internal" bidi=":007a3d9b-9e24-4439-8132-05f53d206387-km-25-gegen_0">
        <lane id=":007a3d9b-9e24-4439-8132-05f53d206387-km-25-gegen_1_0" index="0" allow="rail rail_electric" speed="110.00" length="0.10" shape="3778.29,7207.50 3778.29,7207.50"/>
    </edge>
    <edge id=":00ea2_0" function="internal" bidi=":00ea2_3">
        <lane id=":00ea2_0_0" index="0" allow="rail rail_electric" speed="110.00" length="2.79" shape="7247.27,5737.80 7246.49,5738.06 7245.96,5738.26 7245.44,5738.48 7244.68,5738.82"/>
    </edge>
    <edge id=":00ea2_1" function="internal" bidi=":00ea2_2">
        <lane id=":00ea2_1_0" index="0" allow="rail rail_electric" speed="110.00" length="2.80" shape="7247.27,5737.80 7244.63,5738.70"/>
    </edge>
    <edge id=":00ea2_2" function="internal" bidi=":00ea2_1">
        <lane id=":00ea2_2_0" index="0" allow="rail rail_electric" speed="110.00" length="2.80" shape="7244.63,5738.70 7247.27,5737.80"/>
    </edge>
    <edge id=":00ea2_3" function="internal" bidi=":00ea2_0">
        <lane id=":00ea2_3_0" index="0" allow="rail rail_electric" speed="110.00" length="2.79" shape="7244.68,5738.82 7245.44,5738.48 7245.96,5738.26 7246.49,5738.06 7247.27,5737.80"/>
    </edge>
    <edge id=":00f3d_0" function="internal" bidi=":00f3d_3">
        <lane id=":00f3d_0_0" index="0" allow="rail rail_electric" speed="110.00" length="2.99" shape="6812.87,7189.78 6809.93,7190.28"/>
    </edge>
    <edge id=":00f3d_1" function="internal" bidi=":00f3d_2">
        <lane id=":00f3d_1_0" index="0" allow="rail rail_electric" speed="110.00" length="2.99" shape="6812.86,7189.71 6809.93,7190.28"/>
    </edge>
    <edge id=":00f3d_2" function="internal" bidi=":00f3d_1">
        <lane id=":00f3d_2_0" index="0" allow="rail rail_electric" speed="110.00" length="2.99" shape="6809.93,7190.28 6812.86,7189.71"/>
    </edge>
    <edge id=":00f3d_3" function="internal" bidi=":00f3d_0">
        <lane id=":00f3d_3_0" index="0" allow="rail rail_electric" speed="110.00" length="2.99" shape="6809.93,7190.28 6812.87,7189.78"/>
    </edge>
    <edge id=":010e9_0" function="internal" bidi=":010e9_3">
        <lane id=":010e9_0_0" index="0" allow="rail rail_electric" speed="110.00" length="2.96" shape="12158.61,873.22 12157.82,876.07"/>
    </edge>
    <edge id=":010e9_1" function="internal" bidi=":010e9_2">
        <lane id=":010e9_1_0" index="0" allow="rail rail_electric" speed="110.00" length="2.97" shape="12158.61,873.22 12157.64,876.03"/>
    </edge>
    <edge id=":010e9_2" function="internal" bidi=":010e9_1">
        <lane id=":010e9_2_0" index="0" allow="rail rail_electric" speed="110.00" length="2.97" shape="12157.64,876.03 12158.61,873.22"/>
    </edge>
    <edge id=":010e9_3" function="internal" bidi=":010e9_0">
        <lane id=":010e9_3_0" index="0" allow="rail rail_electric" speed="110.00" length="2.96" shape="12157.82,876.07 12158.61,873.22"/>
    </edge>
    <edge id=":01486_0" function="internal">
        <lane id=":01486_0_0" index="0" allow="rail rail_electric" speed="0.10" length="0.10" shape="9241.14,4610.80 9241.14,4610.80"/>
    </edge>
    <edge id=":01c7c91f-767d-4467-a456-766ec8357372-km-25-gegen_0" function="internal" bidi=":01c7c91f-767d-4467-a456-766ec8357372-km-25-gegen_1">
        <lane id=":01c7c91f-767d-4467-a456-766ec8357372-km-25-gegen_0_0" index="0" allow="rail rail_electric" speed="110.00" length="0.10" shape="8894.40,6235.21 8894.40,6235.21"/>
    </edge>
    <edge id=":01c7c91f-767d-4467-a456-766ec8357372-km-25-gegen_1" function="internal" bidi=":01c7c91f-767d-4467-a456-766ec8357372-km-25-gegen_0">
        <lane id=":01c7c91f-767d-4467-a456-766ec8357372-km-25-gegen_1_0" index="0" allow="rail rail_electric" speed="110.00" length="0.10" shape="8894.40,6235.21 8894.40,6235.21"/>
    </edge>
    <edge id=":01c7fdd8-ea1f-4b9c-bc59-43695d7e73a8-km-204.71434539710333-in_0" function="internal" bidi=":01c7fdd8-ea1f-4b9c-bc59-43695d7e73a8-km-204.71434539710333-in_1">
        <lane id=":01c7fdd8-ea1f-4b9c-bc59-43695d7e73a8-km-204.71434539710333-in_0_0" index="0" allow="rail rail_electric" speed="110.00" length="0.10" shape="4450.03,7329.60 4450.03,7329.60"/>
    </edge>
    <edge id=":01c7fdd8-ea1f-4b9c-bc59-43695d7e73a8-km-204.71434539710333-in_1" function="internal" bidi=":01c7fdd8-ea1f-4b9c-bc59-43695d7e73a8-km-204.71434539710333-in_0">
        <lane id=":01c7fdd8-ea1f-4b9c-bc59-43695d7e73a8-km-204.71434539710333-in_1_0" index="0" allow="rail rail_electric" speed="110.00" length="0.10" shape="4450.03,7329.60 4450.03,7329.60"/>
    </edge>
    <edge id=":01d40a3c-a30b-4d16-8ae2-8443c8b1a2ad-km-105.77800232922417-in_0" function="internal" bidi=":01d40a3c-a30b-4d16-8ae2-8443c8b1a2ad-km-105.77800232922417-in_1">
        <lane id=":01d40a3c-a30b-4d16-8ae2-8443c8b1a2ad-km-105.77800232922417-in_0_0" index="0" allow="rail rail_electric" speed="110.00" length="0.10" shape="7476.62,7942.46 7476.62,7942.46"/>
    </edge>
    <edge id=":01d40a3c-a30b-4d16-8ae2-8443c8b1a2ad-km-105.77800232922417-in_1" function="internal" bidi=":01d40a3c-a30b-4d16-8ae2-8443c8b1a2ad-km-105.77800232922417-in_0">
        <lane id=":01d40a3c-a30b-4d16-8ae2-8443c8b1a2ad-km-105.77800232922417-in_1_0" index="0" allow="rail rail_electric" speed="110.00" length="0.10" shape="7476.62,7942.46 7476.62,7942.46"/>
    </edge>
    <edge id=":01d40a3c-a30b-4d16-8ae2-8443c8b1a2ad-km-25-gegen_0" function="internal" bidi=":01d40a3c-a30b-4d16-8ae2-8443c8b1a2ad-km-25-gegen_1">
        <lane id=":01d40a3c-a30b-4d16-8ae2-8443c8b1a2ad-km-25-gegen_0_0" index="0" allow="rail rail_electric" speed="110.00" length="0.10" shape="7397.38,7958.18 7397.38,7958.18"/>
    </edge>
    <edge id=":01d40a3c-a30b-4d16-8ae2-8443c8b1a2ad-km-25-gegen_1" function="internal" bidi=":01d40a3c-a30b-4d16-8ae2-8443c8b1a2ad-km-25-gegen_0">
        <lane id=":01d40a3c-a30b-4d16-8ae2-8443c8b1a2ad-km-25-gegen_1_0" index="0" allow="rail rail_electric" speed="110.00" length="0.10" shape="7397.38,7958.18 7397.38,7958.18"/>
    </edge>
    <edge id=":021a73bb-8214-479b-9363-2ed13c540a81-km-25-gegen_0" function="internal" bidi=":021a73bb-8214-479b-9363-2ed13c540a81-km-25-gegen_1">
        <lane id=":021a73bb-8214-479b-9363-2ed13c540a81-km-25-gegen_0_0" index="0" allow="rail rail_electric" speed="110.00" length="0.10" shape="4555.78,7448.85 4555.78,7448.85"/>
    </edge>
    <edge id=":021a73bb-8214-479b-9363-2ed13c540a81-km-25-gegen_1" function="internal" bidi=":021a73bb-8214-479b-9363-2ed13c540a81-km-25-gegen_0">
        <lane id=":021a73bb-8214-479b-9363-2ed13c540a81-km-25-gegen_1_0" index="0" allow="rail rail_electric" speed="110.00" length="0.10" shape="4555.78,7448.85 4555.78,7448.85"/>
    </edge>
    <edge id=":021a73bb-8214-479b-9363-2ed13c540a81-km-308.5938682757433-in_0" function="internal" bidi=":021a73bb-8214-479b-9363-2ed13c540a81-km-308.5938682757433-in_1">
        <lane id=":021a73bb-8214-479b-9363-2ed13c540a81-km-308.5938682757433-in_0_0" index="0" allow="rail rail_electric" speed="110.00" length="0.10" shape="4661.21,7701.19 4661.21,7701.19"/>
    </edge>
    <edge id=":021a73bb-8214-479b-9363-2ed13c540a81-km-308.5938682757433-in_1" function="internal" bidi=":021a73bb-8214-479b-9363-2ed13c540a81-km-308.5938682757433-in_0">
        <lane id=":021a73bb-8214-479b-9363-2ed13c540a81-km-308.5938682757433-in_1_0" index="0" allow="rail rail_electric" speed="110.00" length="0.10" shape="4661.21,7701.19 4661.21,7701.19"/>
    </edge>
    <edge id=":022f1_0" function="internal">
        <lane id=":022f1_0_0" index="0" allow="rail rail_electric" speed="0.10" length="0.10" shape="9115.50,6926.95 9115.50,6926.95"/>
    </edge>
    <edge id=":02adc78e-13bf-4b4d-a731-cb9ceb6e5e8b-km-25-gegen_0" function="internal" bidi=":02adc78e-13bf-4b4d-a731-cb9ceb6e5e8b-km-25-gegen_1">
        <lane id=":02adc78e-13bf-4b4d-a731-cb9ceb6e5e8b-km-25-gegen_0_0" index="0" allow="rail rail_electric" speed="110.00" length="0.10" shape="4911.21,6153.00 4911.21,6153.00"/>
    </edge>
    <edge id=":02adc78e-13bf-4b4d-a731-cb9ceb6e5e8b-km-25-gegen_1" function="internal" bidi=":02adc78e-13bf-4b4d-a731-cb9ceb6e5e8b-km-25-gegen_0">
        <lane id=":02adc78e-13bf-4b4d-a731-cb9ceb6e5e8b-km-25-gegen_1_0" index="0" allow="rail rail_electric" speed="110.00" length="0.10" shape="4911.21,6153.00 4911.21,6153.00"/>
    </edge>
    <edge id=":02adc78e-13bf-4b4d-a731-cb9ceb6e5e8b-km-81.09078380485157-in_0" function="internal" bidi=":02adc78e-13bf-4b4d-a731-cb9ceb6e5e8b-km-81.09078380485157-in_1">
        <lane id=":02adc78e-13bf-4b4d-a731-cb9ceb6e5e8b-km-81.09078380485157-in_0_0" index="0" allow="rail rail_electric" speed="110.00" length="0.10" shape="4855.51,6159.57 4855.51,6159.57"/>
    </edge>
    <edge id=":02adc78e-13bf-4b4d-a731-cb9ceb6e5e8b-km-81.09078380485157-in_1" function="internal" bidi=":02adc78e-13bf-4b4d-a731-cb9ceb6e5e8b-km-81.09078380485157-in_0">
        <lane id=":02adc78e-13bf-4b4d-a731-cb9ceb6e5e8b-km-81.09078380485157-in_1_0" index="0" allow="rail rail_electric" speed="110.00" length="0.10" shape="4855.51,6159.57 4855.51,6159.57"/>
    </edge>
    <edge id=":0426d_0" function="internal">
        <lane id=":0426d_0_0" index="0" allow="rail rail_electric" speed="0.10" length="0.10" shape="4396.92,7958.70 4396.92,7958.70"/>
    </edge>
    <edge id=":0463a_0" function="internal">
        <lane id=":0463a_0_0" index="0" allow="rail rail_electric" speed="0.10" length="0.10" shape="6440.38,8192.20 6440.38,8192.20"/>
    </edge>
    <edge id=":052a9_0" function="internal" bidi=":052a9_3">
        <lane id=":052a9_0_0" index="0" allow="rail rail_electric" speed="110.00" length="2.99" shape="4735.33,6173.98 4732.37,6174.36"/>
    </edge>
    <edge id=":052a9_1" function="internal" bidi=":052a9_2">
        <lane id=":052a9_1_0" index="0" allow="rail rail_electric" speed="110.00" length="2.98" shape="4735.32,6173.91 4732.37,6174.36"/>
    </edge>
    <edge id=":052a9_2" function="internal" bidi=":052a9_1">
        <lane id=":052a9_2_0" index="0" allow="rail rail_electric" speed="110.00" length="2.98" shape="4732.37,6174.36 4735.32,6173.91"/>
    </edge>
    <edge id=":052a9_3" function="internal" bidi=":052a9_0">
        <lane id=":052a9_3_0" index="0" allow="rail rail_electric" speed="110.00" length="2.99" shape="4732.37,6174.36 4735.33,6173.98"/>
    </edge>
    <edge id=":0567f_0" function="internal" bidi=":0567f_3">
        <lane id=":0567f_0_0" index="0" allow="rail rail_electric" speed="110.00" length="21.50" shape="10530.64,3675.26 10528.00,3679.21 10525.04,3684.41 10522.19,3689.69 10519.92,3693.88"/>
    </edge>
    <edge id=":0567f_1" function="internal" bidi=":0567f_2">
        <lane id=":0567f_1_0" index="0" allow="rail rail_electric" speed="110.00" length="21.50" shape="10530.64,3675.26 10517.07,3691.94"/>
    </edge>
    <edge id=":0567f_2" function="internal" bidi=":0567f_1">
        <lane id=":0567f_2_0" index="0" allow="rail rail_electric" speed="110.00" length="21.50" shape="10517.07,3691.94 10530.64,3675.26"/>
    </edge>
    <edge id=":0567f_3" function="internal" bidi=":0567f_0">
        <lane id=":0567f_3_0" index="0" allow="rail rail_electric" speed="110.00" length="21.50" shape="10519.92,3693.88 10522.19,3689.69 10525.04,3684.41 10528.00,3679.21 10530.64,3675.26"/>
    </edge>
    <edge id=":0599e_0" function="internal" bidi=":0599e_3">
        <lane id=":0599e_0_0" index="0" allow="rail rail_electric" speed="110.00" length="2.99" shape="5487.51,10612.26 5485.08,10614.01"/>
    </edge>
    <edge id=":0599e_1" function="internal" bidi=":0599e_2">
        <lane id=":0599e_1_0" index="0" allow="rail rail_electric" speed="110.00" length="2.99" shape="5487.51,10612.26 5485.05,10613.95"/>
    </edge>
    <edge id=":0599e_2" function="internal" bidi=":0599e_1">
        <lane id=":0599e_2_0" index="0" allow="rail rail_electric" speed="110.00" length="2.99" shape="5485.05,10613.95 5487.51,10612.26"/>
    </edge>
    <edge id=":0599e_3" function="internal" bidi=":0599e_0">
        <lane id=":0599e_3_0" index="0" allow="rail rail_electric" speed="110.00" length="2.99" shape="5485.08,10614.01 5487.51,10612.26"/>
    </edge>
    <edge id=":05b85d16-eb21-4f5a-9bf7-03c4eb8d8d2c-km-1000-gegen_0" function="internal" bidi=":05b85d16-eb21-4f5a-9bf7-03c4eb8d8d2c-km-1000-gegen_1">
        <lane id=":05b85d16-eb21-4f5a-9bf7-03c4eb8d8d2c-km-1000-gegen_0_0" index="0" allow="rail rail_electric" speed="110.00" length="0.22" shape="8559.47,7540.28 8559.42,7540.22 8559.38,7540.16 8559.35,7540.12 8559.37,7540.13"/>
    </edge>
    <edge id=":05b85d16-eb21-4f5a-9bf7-03c4eb8d8d2c-km-1000-gegen_1" function="internal" bidi=":05b85d16-eb21-4f5a-9bf7-03c4eb8d8d2c-km-1000-gegen_0">
        <lane id=":05b85d16-eb21-4f5a-9bf7-03c4eb8d8d2c-km-1000-gegen_1_0" index="0" allow="rail rail_electric" speed="110.00" length="0.22" shape="8559.37,7540.13 8559.35,7540.12 8559.38,7540.16 8559.42,7540.22 8559.47,7540.28"/>
    </edge>
    <edge id=":05b85d16-eb21-4f5a-9bf7-03c4eb8d8d2c-km-1000-in_0" function="internal" bidi=":05b85d16-eb21-4f5a-9bf7-03c4eb8d8d2c-km-1000-in_1">
        <lane id=":05b85d16-eb21-4f5a-9bf7-03c4eb8d8d2c-km-1000-in_0_0" index="0" allow="rail rail_electric" speed="110.00" length="0.31" shape="8559.28,7539.99 8559.47,7540.23"/>
    </edge>
    <edge id=":05b85d16-eb21-4f5a-9bf7-03c4eb8d8d2c-km-1000-in_1" function="internal" bidi=":05b85d16-eb21-4f5a-9bf7-03c4eb8d8d2c-km-1000-in_0">
        <lane id=":05b85d16-eb21-4f5a-9bf7-03c4eb8d8d2c-km-1000-in_1_0" index="0" allow="rail rail_electric" speed="110.00" length="0.31" shape="8559.47,7540.23 8559.28,7539.99"/>
    </edge>
    <edge id=":05b85d16-eb21-4f5a-9bf7-03c4eb8d8d2c-km-2000-gegen_0" function="internal" bidi=":05b85d16-eb21-4f5a-9bf7-03c4eb8d8d2c-km-2000-gegen_1">
        <lane id=":05b85d16-eb21-4f5a-9bf7-03c4eb8d8d2c-km-2000-gegen_0_0" index="0" allow="rail rail_electric" speed="3.91" length="2.03" shape="8349.06,8462.53 8348.73,8462.39 8348.53,8462.74 8348.34,8463.33 8348.03,8463.90"/>
    </edge>
    <edge id=":05b85d16-eb21-4f5a-9bf7-03c4eb8d8d2c-km-2000-gegen_1" function="internal" bidi=":05b85d16-eb21-4f5a-9bf7-03c4eb8d8d2c-km-2000-gegen_0">
        <lane id=":05b85d16-eb21-4f5a-9bf7-03c4eb8d8d2c-km-2000-gegen_1_0" index="0" allow="rail rail_electric" speed="3.91" length="2.03" shape="8348.03,8463.90 8348.34,8463.33 8348.53,8462.74 8348.73,8462.39 8349.06,8462.53"/>
    </edge>
    <edge id=":05b85d16-eb21-4f5a-9bf7-03c4eb8d8d2c-km-2000-in_0" function="internal" bidi=":05b85d16-eb21-4f5a-9bf7-03c4eb8d8d2c-km-2000-in_1">
        <lane id=":05b85d16-eb21-4f5a-9bf7-03c4eb8d8d2c-km-2000-in_0_0" index="0" allow="rail rail_electric" speed="3.84" length="2.04" shape="8350.25,8461.30 8349.95,8461.88 8349.76,8462.47 8349.55,8462.81 8349.21,8462.67"/>
    </edge>
    <edge id=":05b85d16-eb21-4f5a-9bf7-03c4eb8d8d2c-km-2000-in_1" function="internal" bidi=":05b85d16-eb21-4f5a-9bf7-03c4eb8d8d2c-km-2000-in_0">
        <lane id=":05b85d16-eb21-4f5a-9bf7-03c4eb8d8d2c-km-2000-in_1_0" index="0" allow="rail rail_electric" speed="3.84" length="2.04" shape="8349.21,8462.67 8349.55,8462.81 8349.76,8462.47 8349.95,8461.88 8350.25,8461.30"/>
    </edge>
    <edge id=":05b85d16-eb21-4f5a-9bf7-03c4eb8d8d2c-km-25-gegen_0" function="internal" bidi=":05b85d16-eb21-4f5a-9bf7-03c4eb8d8d2c-km-25-gegen_1">
        <lane id=":05b85d16-eb21-4f5a-9bf7-03c4eb8d8d2c-km-25-gegen_0_0" index="0" allow="rail rail_electric" speed="110.00" length="0.10" shape="7659.06,7354.96 7659.06,7354.96"/>
    </edge>
    <edge id=":05b85d16-eb21-4f5a-9bf7-03c4eb8d8d2c-km-25-gegen_1" function="internal" bidi=":05b85d16-eb21-4f5a-9bf7-03c4eb8d8d2c-km-25-gegen_0">
        <lane id=":05b85d16-eb21-4f5a-9bf7-03c4eb8d8d2c-km-25-gegen_1_0" index="0" allow="rail rail_electric" speed="110.00" length="0.10" shape="7659.06,7354.96 7659.06,7354.96"/>
    </edge>
    <edge id=":05b85d16-eb21-4f5a-9bf7-03c4eb8d8d2c-km-3000-gegen_0" function="internal" bidi=":05b85d16-eb21-4f5a-9bf7-03c4eb8d8d2c-km-3000-gegen_1">
        <lane id=":05b85d16-eb21-4f5a-9bf7-03c4eb8d8d2c-km-3000-gegen_0_0" index="0" allow="rail rail_electric" speed="3.89" length="1.56" shape="7585.16,9103.76 7584.87,9103.64 7584.67,9103.87 7584.45,9104.26 7584.12,9104.64"/>
    </edge>
    <edge id=":05b85d16-eb21-4f5a-9bf7-03c4eb8d8d2c-km-3000-gegen_1" function="internal" bidi=":05b85d16-eb21-4f5a-9bf7-03c4eb8d8d2c-km-3000-gegen_0">
        <lane id=":05b85d16-eb21-4f5a-9bf7-03c4eb8d8d2c-km-3000-gegen_1_0" index="0" allow="rail rail_electric" speed="3.89" length="1.56" shape="7584.12,9104.64 7584.45,9104.26 7584.67,9103.87 7584.87,9103.64 7585.16,9103.76"/>
    </edge>
    <edge id=":05b85d16-eb21-4f5a-9bf7-03c4eb8d8d2c-km-3000-in_0" function="internal" bidi=":05b85d16-eb21-4f5a-9bf7-03c4eb8d8d2c-km-3000-in_1">
        <lane id=":05b85d16-eb21-4f5a-9bf7-03c4eb8d8d2c-km-3000-in_0_0" index="0" allow="rail rail_electric" speed="3.89" length="1.56" shape="7586.33,9103.03 7586.01,9103.40 7585.79,9103.80 7585.59,9104.03 7585.30,9103.90"/>
    </edge>
    <edge id=":05b85d16-eb21-4f5a-9bf7-03c4eb8d8d2c-km-3000-in_1" function="internal" bidi=":05b85d16-eb21-4f5a-9bf7-03c4eb8d8d2c-km-3000-in_0">
        <lane id=":05b85d16-eb21-4f5a-9bf7-03c4eb8d8d2c-km-3000-in_1_0" index="0" allow="rail rail_electric" speed="3.89" length="1.56" shape="7585.30,9103.90 7585.59,9104.03 7585.79,9103.80 7586.01,9103.40 7586.33,9103.03"/>
    </edge>
    <edge id=":05b85d16-eb21-4f5a-9bf7-03c4eb8d8d2c-km-4000-gegen_0" function="internal" bidi=":05b85d16-eb21-4f5a-9bf7-03c4eb8d8d2c-km-4000-gegen_1">
        <lane id=":05b85d16-eb21-4f5a-9bf7-03c4eb8d8d2c-km-4000-gegen_0_0" index="0" allow="rail rail_electric" speed="3.89" length="1.56" shape="6773.12,9687.36 6772.84,9687.24 6772.63,9687.47 6772.41,9687.86 6772.09,9688.23"/>
    </edge>
    <edge id=":05b85d16-eb21-4f5a-9bf7-03c4eb8d8d2c-km-4000-gegen_1" function="internal" bidi=":05b85d16-eb21-4f5a-9bf7-03c4eb8d8d2c-km-4000-gegen_0">
        <lane id=":05b85d16-eb21-4f5a-9bf7-03c4eb8d8d2c-km-4000-gegen_1_0" index="0" allow="rail rail_electric" speed="3.89" length="1.56" shape="6772.09,9688.23 6772.41,9687.86 6772.63,9687.47 6772.84,9687.24 6773.12,9687.36"/>
    </edge>
    <edge id=":05b85d16-eb21-4f5a-9bf7-03c4eb8d8d2c-km-4000-in_0" function="internal" bidi=":05b85d16-eb21-4f5a-9bf7-03c4eb8d8d2c-km-4000-in_1">
        <lane id=":05b85d16-eb21-4f5a-9bf7-03c4eb8d8d2c-km-4000-in_0_0" index="0" allow="rail rail_electric" speed="3.89" length="1.56" shape="6774.30,9686.63 6773.97,9687.00 6773.76,9687.40 6773.55,9687.63 6773.26,9687.50"/>
    </edge>
    <edge id=":05b85d16-eb21-4f5a-9bf7-03c4eb8d8d2c-km-4000-in_1" function="internal" bidi=":05b85d16-eb21-4f5a-9bf7-03c4eb8d8d2c-km-4000-in_0">
        <lane id=":05b85d16-eb21-4f5a-9bf7-03c4eb8d8d2c-km-4000-in_1_0" index="0" allow="rail rail_electric" speed="3.89" length="1.56" shape="6773.26,9687.50 6773.55,9687.63 6773.76,9687.40 6773.97,9687.00 6774.30,9686.63"/>
    </edge>
    <edge id=":05b85d16-eb21-4f5a-9bf7-03c4eb8d8d2c-km-5560.253303703657-in_0" function="internal" bidi=":05b85d16-eb21-4f5a-9bf7-03c4eb8d8d2c-km-5560.253303703657-in_1">
        <lane id=":05b85d16-eb21-4f5a-9bf7-03c4eb8d8d2c-km-5560.253303703657-in_0_0" index="0" allow="rail rail_electric" speed="110.00" length="0.10" shape="5506.55,10598.44 5506.55,10598.44"/>
    </edge>
    <edge id=":05b85d16-eb21-4f5a-9bf7-03c4eb8d8d2c-km-5560.253303703657-in_1" function="internal" bidi=":05b85d16-eb21-4f5a-9bf7-03c4eb8d8d2c-km-5560.253303703657-in_0">
        <lane id=":05b85d16-eb21-4f5a-9bf7-03c4eb8d8d2c-km-5560.253303703657-in_1_0" index="0" allow="rail rail_electric" speed="110.00" length="0.10" shape="5506.55,10598.44 5506.55,10598.44"/>
    </edge>
    <edge id=":05d5b8cb-4125-4c77-be20-3aabab3f5fa7-km-25-gegen_0" function="internal" bidi=":05d5b8cb-4125-4c77-be20-3aabab3f5fa7-km-25-gegen_1">
        <lane id=":05d5b8cb-4125-4c77-be20-3aabab3f5fa7-km-25-gegen_0_0" index="0" allow="rail rail_electric" speed="110.00" length="0.10" shape="10580.45,3718.03 10580.45,3718.03"/>
    </edge>
    <edge id=":05d5b8cb-4125-4c77-be20-3aabab3f5fa7-km-25-gegen_1" function="internal" bidi=":05d5b8cb-4125-4c77-be20-3aabab3f5fa7-km-25-gegen_0">
        <lane id=":05d5b8cb-4125-4c77-be20-3aabab3f5fa7-km-25-gegen_1_0" index="0" allow="rail rail_electric" speed="110.00" length="0.10" shape="10580.45,3718.03 10580.45,3718.03"/>
    </edge>
    <edge id=":05d5b8cb-4125-4c77-be20-3aabab3f5fa7-km-738.367368462733-in_0" function="internal" bidi=":05d5b8cb-4125-4c77-be20-3aabab3f5fa7-km-738.367368462733-in_1">
        <lane id=":05d5b8cb-4125-4c77-be20-3aabab3f5fa7-km-738.367368462733-in_0_0" index="0" allow="rail rail_electric" speed="110.00" length="0.10" shape="10904.05,3083.81 10904.05,3083.81"/>
    </edge>
    <edge id=":05d5b8cb-4125-4c77-be20-3aabab3f5fa7-km-738.367368462733-in_1" function="internal" bidi=":05d5b8cb-4125-4c77-be20-3aabab3f5fa7-km-738.367368462733-in_0">
        <lane id=":05d5b8cb-4125-4c77-be20-3aabab3f5fa7-km-738.367368462733-in_1_0" index="0" allow="rail rail_electric" speed="110.00" length="0.10" shape="10904.05,3083.81 10904.05,3083.81"/>
    </edge>
    <edge id=":05fc0_0" function="internal" bidi=":05fc0_3">
        <lane id=":05fc0_0_0" index="0" allow="rail rail_electric" speed="110.00" length="3.01" shape="11600.15,1863.95 11598.16,1866.20"/>
    </edge>
    <edge id=":05fc0_1" function="internal" bidi=":05fc0_2">
        <lane id=":05fc0_1_0" index="0" allow="rail rail_electric" speed="110.00" length="3.01" shape="11600.05,1863.87 11598.16,1866.20"/>
    </edge>
    <edge id=":05fc0_2" function="internal" bidi=":05fc0_1">
        <lane id=":05fc0_2_0" index="0" allow="rail rail_electric" speed="110.00" length="3.01" shape="11598.16,1866.20 11600.05,1863.87"/>
    </edge>
    <edge id=":05fc0_3" function="internal" bidi=":05fc0_0">
        <lane id=":05fc0_3_0" index="0" allow="rail rail_electric" speed="110.00" length="3.01" shape="11598.16,1866.20 11600.15,1863.95"/>
    </edge>
    <edge id=":06537abf-243d-4d4e-8bb2-347d408437d7-km-25-gegen_0" function="internal" bidi=":06537abf-243d-4d4e-8bb2-347d408437d7-km-25-gegen_1">
        <lane id=":06537abf-243d-4d4e-8bb2-347d408437d7-km-25-gegen_0_0" index="0" allow="rail rail_electric" speed="110.00" length="0.10" shape="5253.17,7718.76 5253.17,7718.76"/>
    </edge>
    <edge id=":06537abf-243d-4d4e-8bb2-347d408437d7-km-25-gegen_1" function="internal" bidi=":06537abf-243d-4d4e-8bb2-347d408437d7-km-25-gegen_0">
        <lane id=":06537abf-243d-4d4e-8bb2-347d408437d7-km-25-gegen_1_0" index="0" allow="rail rail_electric" speed="110.00" length="0.10" shape="5253.17,7718.76 5253.17,7718.76"/>
    </edge>
    <edge id=":070c30bc-3036-4726-bb7e-2eac0a2d38bd-km-25-gegen_0" function="internal" bidi=":070c30bc-3036-4726-bb7e-2eac0a2d38bd-km-25-gegen_1">
        <lane id=":070c30bc-3036-4726-bb7e-2eac0a2d38bd-km-25-gegen_0_0" index="0" allow="rail rail_electric" speed="110.00" length="0.10" shape="9127.45,6506.10 9127.45,6506.10"/>
    </edge>
    <edge id=":070c30bc-3036-4726-bb7e-2eac0a2d38bd-km-25-gegen_1" function="internal" bidi=":070c30bc-3036-4726-bb7e-2eac0a2d38bd-km-25-gegen_0">
        <lane id=":070c30bc-3036-4726-bb7e-2eac0a2d38bd-km-25-gegen_1_0" index="0" allow="rail rail_electric" speed="110.00" length="0.10" shape="9127.45,6506.10 9127.45,6506.10"/>
    </edge>
    <edge id=":072322a2-f4da-4f4d-9e45-1f8633ba411e-km-1119.325048676234-in_0" function="internal" bidi=":072322a2-f4da-4f4d-9e45-1f8633ba411e-km-1119.325048676234-in_1">
        <lane id=":072322a2-f4da-4f4d-9e45-1f8633ba411e-km-1119.325048676234-in_0_0" index="0" allow="rail rail_electric" speed="110.00" length="0.10" shape="11616.08,1846.74 11616.08,1846.74"/>
    </edge>
    <edge id=":072322a2-f4da-4f4d-9e45-1f8633ba411e-km-1119.325048676234-in_1" function="internal" bidi=":072322a2-f4da-4f4d-9e45-1f8633ba411e-km-1119.325048676234-in_0">
        <lane id=":072322a2-f4da-4f4d-9e45-1f8633ba411e-km-1119.325048676234-in_1_0" index="0" allow="rail rail_electric" speed="110.00" length="0.10" shape="11616.08,1846.74 11616.08,1846.74"/>
    </edge>
    <edge id=":072322a2-f4da-4f4d-9e45-1f8633ba411e-km-25-gegen_0" function="internal" bidi=":072322a2-f4da-4f4d-9e45-1f8633ba411e-km-25-gegen_1">
        <lane id=":072322a2-f4da-4f4d-9e45-1f8633ba411e-km-25-gegen_0_0" index="0" allow="rail rail_electric" speed="110.00" length="0.10" shape="12152.26,898.85 12152.26,898.85"/>
    </edge>
    <edge id=":072322a2-f4da-4f4d-9e45-1f8633ba411e-km-25-gegen_1" function="internal" bidi=":072322a2-f4da-4f4d-9e45-1f8633ba411e-km-25-gegen_0">
        <lane id=":072322a2-f4da-4f4d-9e45-1f8633ba411e-km-25-gegen_1_0" index="0" allow="rail rail_electric" speed="110.00" length="0.10" shape="12152.26,898.85 12152.26,898.85"/>
    </edge>
    <edge id=":0729e_0" function="internal">
        <lane id=":0729e_0_0" index="0" allow="rail rail_electric" speed="0.10" length="0.10" shape="4524.13,7279.55 4524.13,7279.55"/>
    </edge>
    <edge id=":079a5_0" function="internal">
        <lane id=":079a5_0_0" index="0" allow="rail rail_electric" speed="0.10" length="0.10" shape="3808.70,7101.36 3808.70,7101.36"/>
    </edge>
    <edge id=":07de2_0" function="internal" bidi=":07de2_2">
        <lane id=":07de2_0_0" index="0" allow="rail rail_electric" speed="110.00" length="2.90" shape="4646.86,7697.07 4644.34,7695.63"/>
    </edge>
    <edge id=":07de2_1" function="internal" bidi=":07de2_3">
        <lane id=":07de2_1_0" index="0" allow="rail rail_electric" speed="110.00" length="2.90" shape="4646.86,7697.07 4644.36,7695.59"/>
    </edge>
    <edge id=":07de2_2" function="internal" bidi=":07de2_0">
        <lane id=":07de2_2_0" index="0" allow="rail rail_electric" speed="110.00" length="2.90" shape="4644.34,7695.63 4646.86,7697.07"/>
    </edge>
    <edge id=":07de2_3" function="internal" bidi=":07de2_1">
        <lane id=":07de2_3_0" index="0" allow="rail rail_electric" speed="110.00" length="2.90" shape="4644.36,7695.59 4646.86,7697.07"/>
    </edge>
    <edge id=":08f4053a-dab5-45cd-93fe-a8473912e5c5-km-25-gegen_0" function="internal" bidi=":08f4053a-dab5-45cd-93fe-a8473912e5c5-km-25-gegen_1">
        <lane id=":08f4053a-dab5-45cd-93fe-a8473912e5c5-km-25-gegen_0_0" index="0" allow="rail rail_electric" speed="110.00" length="0.10" shape="8975.24,5885.53 8975.24,5885.53"/>
    </edge>
    <edge id=":08f4053a-dab5-45cd-93fe-a8473912e5c5-km-25-gegen_1" function="internal" bidi=":08f4053a-dab5-45cd-93fe-a8473912e5c5-km-25-gegen_0">
        <lane id=":08f4053a-dab5-45cd-93fe-a8473912e5c5-km-25-gegen_1_0" index="0" allow="rail rail_electric" speed="110.00" length="0.10" shape="8975.24,5885.53 8975.24,5885.53"/>
    </edge>
    <edge id=":090e5_0" function="internal">
        <lane id=":090e5_0_0" index="0" allow="rail rail_electric" speed="0.10" length="0.10" shape="8312.61,5322.16 8312.61,5322.16"/>
    </edge>