<?xml version="1.0" encoding="UTF-8"?>

<!-- generated on 2023-05-22 15:23:08 by Eclipse SUMO netconvert Version 1.12.0
<configuration xmlns:xsi="http://www.w3.org/2001/XMLSchema-instance" xsi:noNamespaceSchemaLocation="http://sumo.dlr.de/xsd/netconvertConfiguration.xsd">

    <input>
        <node-files value="sumo-config/schwarze_pumpe_v1.nod.xml"/>
        <edge-files value="sumo-config/schwarze_pumpe_v1.edg.xml"/>
        <connection-files value="sumo-config/schwarze_pumpe_v1.con.xml"/>
    </input>

    <output>
        <output-file value="sumo-config/schwarze_pumpe_v1.net.xml"/>
    </output>

    <railway>
        <railway.topology.repair value="true"/>
        <railway.topology.repair.connect-straight value="true"/>
        <railway.topology.repair.stop-turn value="true"/>
        <railway.topology.all-bidi value="false"/>
    </railway>

    <report>
        <aggregate-warnings value="5"/>
    </report>

</configuration>
-->

<net version="1.9" junctionCornerDetail="5" limitTurnSpeed="5.50" xmlns:xsi="http://www.w3.org/2001/XMLSchema-instance" xsi:noNamespaceSchemaLocation="http://sumo.dlr.de/xsd/net_file.xsd">

    <location netOffset="2506174.81,-3459405.32" convBoundary="0.00,0.00,12719.19,11737.42" origBoundary="-2506174.81,3459405.32,-2493455.62,3471142.74" projParameter="!"/>

    <edge id=":007d5_0" function="internal" bidi=":007d5_3">
        <lane id=":007d5_0_0" index="0" allow="rail rail_electric" speed="110.00" length="2.79" shape="11391.02,2182.82 11390.62,2183.54 11390.36,2184.05 11390.13,2184.57 11389.82,2185.34"/>
    </edge>
    <edge id=":007d5_1" function="internal" bidi=":007d5_2">
        <lane id=":007d5_1_0" index="0" allow="rail rail_electric" speed="110.00" length="2.81" shape="11391.02,2182.82 11389.65,2185.27"/>
    </edge>
    <edge id=":007d5_2" function="internal" bidi=":007d5_1">
        <lane id=":007d5_2_0" index="0" allow="rail rail_electric" speed="110.00" length="2.81" shape="11389.65,2185.27 11391.02,2182.82"/>
    </edge>
    <edge id=":007d5_3" function="internal" bidi=":007d5_0">
        <lane id=":007d5_3_0" index="0" allow="rail rail_electric" speed="110.00" length="2.79" shape="11389.82,2185.34 11390.13,2184.57 11390.36,2184.05 11390.62,2183.54 11391.02,2182.82"/>
    </edge>
    <edge id=":00a9f_0" function="internal" bidi=":00a9f_3">
        <lane id=":00a9f_0_0" index="0" allow="rail rail_electric" speed="110.00" length="2.92" shape="5107.00,6130.40 5104.10,6130.74"/>
    </edge>
    <edge id=":00a9f_1" function="internal" bidi=":00a9f_2">
        <lane id=":00a9f_1_0" index="0" allow="rail rail_electric" speed="110.00" length="2.92" shape="5106.98,6130.31 5104.10,6130.74"/>
    </edge>
    <edge id=":00a9f_2" function="internal" bidi=":00a9f_1">
        <lane id=":00a9f_2_0" index="0" allow="rail rail_electric" speed="110.00" length="2.92" shape="5104.10,6130.74 5106.98,6130.31"/>
    </edge>
    <edge id=":00a9f_3" function="internal" bidi=":00a9f_0">
        <lane id=":00a9f_3_0" index="0" allow="rail rail_electric" speed="110.00" length="2.92" shape="5104.10,6130.74 5107.00,6130.40"/>
    </edge>
    <edge id=":012e6451-0b52-447b-a9a5-f416fafeefc2-km-25-gegen_0" function="internal" bidi=":012e6451-0b52-447b-a9a5-f416fafeefc2-km-25-gegen_1">
        <lane id=":012e6451-0b52-447b-a9a5-f416fafeefc2-km-25-gegen_0_0" index="0" allow="rail rail_electric" speed="110.00" length="0.10" shape="4124.07,10783.98 4124.07,10783.98"/>
    </edge>
    <edge id=":012e6451-0b52-447b-a9a5-f416fafeefc2-km-25-gegen_1" function="internal" bidi=":012e6451-0b52-447b-a9a5-f416fafeefc2-km-25-gegen_0">
        <lane id=":012e6451-0b52-447b-a9a5-f416fafeefc2-km-25-gegen_1_0" index="0" allow="rail rail_electric" speed="110.00" length="0.10" shape="4124.07,10783.98 4124.07,10783.98"/>
    </edge>
    <edge id=":012e6451-0b52-447b-a9a5-f416fafeefc2-km-950.982101781782-in_0" function="internal" bidi=":012e6451-0b52-447b-a9a5-f416fafeefc2-km-950.982101781782-in_1">
        <lane id=":012e6451-0b52-447b-a9a5-f416fafeefc2-km-950.982101781782-in_0_0" index="0" allow="rail rail_electric" speed="110.00" length="0.10" shape="4659.60,11539.30 4659.60,11539.30"/>
    </edge>
    <edge id=":012e6451-0b52-447b-a9a5-f416fafeefc2-km-950.982101781782-in_1" function="internal" bidi=":012e6451-0b52-447b-a9a5-f416fafeefc2-km-950.982101781782-in_0">
        <lane id=":012e6451-0b52-447b-a9a5-f416fafeefc2-km-950.982101781782-in_1_0" index="0" allow="rail rail_electric" speed="110.00" length="0.10" shape="4659.60,11539.30 4659.60,11539.30"/>
    </edge>
    <edge id=":0141f558-0cdc-4e82-9023-5f87f903a035-km-1650.3798227356062-in_0" function="internal" bidi=":0141f558-0cdc-4e82-9023-5f87f903a035-km-1650.3798227356062-in_1">
        <lane id=":0141f558-0cdc-4e82-9023-5f87f903a035-km-1650.3798227356062-in_0_0" index="0" allow="rail rail_electric" speed="110.00" length="0.10" shape="6083.12,5899.24 6083.12,5899.24"/>
    </edge>
    <edge id=":0141f558-0cdc-4e82-9023-5f87f903a035-km-1650.3798227356062-in_1" function="internal" bidi=":0141f558-0cdc-4e82-9023-5f87f903a035-km-1650.3798227356062-in_0">
        <lane id=":0141f558-0cdc-4e82-9023-5f87f903a035-km-1650.3798227356062-in_1_0" index="0" allow="rail rail_electric" speed="110.00" length="0.10" shape="6083.12,5899.24 6083.12,5899.24"/>
    </edge>
    <edge id=":0141f558-0cdc-4e82-9023-5f87f903a035-km-25-gegen_0" function="internal" bidi=":0141f558-0cdc-4e82-9023-5f87f903a035-km-25-gegen_1">
        <lane id=":0141f558-0cdc-4e82-9023-5f87f903a035-km-25-gegen_0_0" index="0" allow="rail rail_electric" speed="110.00" length="0.10" shape="7676.95,5580.55 7676.95,5580.55"/>
    </edge>
    <edge id=":0141f558-0cdc-4e82-9023-5f87f903a035-km-25-gegen_1" function="internal" bidi=":0141f558-0cdc-4e82-9023-5f87f903a035-km-25-gegen_0">
        <lane id=":0141f558-0cdc-4e82-9023-5f87f903a035-km-25-gegen_1_0" index="0" allow="rail rail_electric" speed="110.00" length="0.10" shape="7676.95,5580.55 7676.95,5580.55"/>
    </edge>
    <edge id=":016be_0" function="internal" bidi=":016be_3">
        <lane id=":016be_0_0" index="0" allow="rail rail_electric" speed="110.00" length="2.99" shape="4969.50,7880.87 4966.57,7881.46"/>
    </edge>
    <edge id=":016be_1" function="internal" bidi=":016be_2">
        <lane id=":016be_1_0" index="0" allow="rail rail_electric" speed="110.00" length="2.99" shape="4969.50,7880.87 4966.55,7881.38"/>
    </edge>
    <edge id=":016be_2" function="internal" bidi=":016be_1">
        <lane id=":016be_2_0" index="0" allow="rail rail_electric" speed="110.00" length="2.99" shape="4966.55,7881.38 4969.50,7880.87"/>
    </edge>
    <edge id=":016be_3" function="internal" bidi=":016be_0">
        <lane id=":016be_3_0" index="0" allow="rail rail_electric" speed="110.00" length="2.99" shape="4966.57,7881.46 4969.50,7880.87"/>
    </edge>
    <edge id=":025bc_0" function="internal">
        <lane id=":025bc_0_0" index="0" allow="rail rail_electric" speed="0.10" length="0.10" shape="6454.54,5959.61 6454.54,5959.61"/>
    </edge>
    <edge id=":02ba5_0" function="internal" bidi=":02ba5_3">
        <lane id=":02ba5_0_0" index="0" allow="rail rail_electric" speed="110.00" length="22.28" shape="4551.09,7425.98 4547.02,7404.07"/>
    </edge>
    <edge id=":02ba5_1" function="internal" bidi=":02ba5_2">
        <lane id=":02ba5_1_0" index="0" allow="rail rail_electric" speed="110.00" length="22.28" shape="4551.09,7425.98 4550.57,7421.14 4550.42,7414.89 4550.44,7408.63 4550.45,7403.73"/>
    </edge>
    <edge id=":02ba5_2" function="internal" bidi=":02ba5_1">
        <lane id=":02ba5_2_0" index="0" allow="rail rail_electric" speed="110.00" length="22.28" shape="4550.45,7403.73 4550.44,7408.63 4550.42,7414.89 4550.57,7421.14 4551.09,7425.98"/>
    </edge>
    <edge id=":02ba5_3" function="internal" bidi=":02ba5_0">
        <lane id=":02ba5_3_0" index="0" allow="rail rail_electric" speed="110.00" length="22.28" shape="4547.02,7404.07 4551.09,7425.98"/>
    </edge>
    <edge id=":02be8_0" function="internal" bidi=":02be8_3">
        <lane id=":02be8_0_0" index="0" allow="rail rail_electric" speed="110.00" length="2.95" shape="5160.42,7842.27 5157.54,7842.90"/>
    </edge>
    <edge id=":02be8_1" function="internal" bidi=":02be8_2">
        <lane id=":02be8_1_0" index="0" allow="rail rail_electric" speed="110.00" length="2.95" shape="5160.42,7842.27 5157.53,7842.85"/>
    </edge>
    <edge id=":02be8_2" function="internal" bidi=":02be8_1">
        <lane id=":02be8_2_0" index="0" allow="rail rail_electric" speed="110.00" length="2.95" shape="5157.53,7842.85 5160.42,7842.27"/>
    </edge>
    <edge id=":02be8_3" function="internal" bidi=":02be8_0">
        <lane id=":02be8_3_0" index="0" allow="rail rail_electric" speed="110.00" length="2.95" shape="5157.54,7842.90 5160.42,7842.27"/>
    </edge>
    <edge id=":02d33_0" function="internal">
        <lane id=":02d33_0_0" index="0" allow="rail rail_electric" speed="0.10" length="0.10" shape="4430.52,7125.28 4430.52,7125.28"/>
    </edge>
    <edge id=":03465_0" function="internal" bidi=":03465_3">
        <lane id=":03465_0_0" index="0" allow="rail rail_electric" speed="110.00" length="23.02" shape="9156.21,5893.46 9155.61,5916.46"/>
    </edge>
    <edge id=":03465_1" function="internal" bidi=":03465_2">
        <lane id=":03465_1_0" index="0" allow="rail rail_electric" speed="110.00" length="23.01" shape="9152.78,5893.64 9153.52,5898.59 9154.49,5905.04 9155.31,5911.48 9155.61,5916.46"/>
    </edge>
    <edge id=":03465_2" function="internal" bidi=":03465_1">
        <lane id=":03465_2_0" index="0" allow="rail rail_electric" speed="110.00" length="23.01" shape="9155.61,5916.46 9155.31,5911.48 9154.49,5905.04 9153.52,5898.59 9152.78,5893.64"/>
    </edge>
    <edge id=":03465_3" function="internal" bidi=":03465_0">
        <lane id=":03465_3_0" index="0" allow="rail rail_electric" speed="110.00" length="23.02" shape="9155.61,5916.46 9156.21,5893.46"/>
    </edge>
    <edge id=":035bb0a9-c88f-4741-9406-2a55eb922bb2-km-272.5487624676751-in_0" function="internal" bidi=":035bb0a9-c88f-4741-9406-2a55eb922bb2-km-272.5487624676751-in_1">
        <lane id=":035bb0a9-c88f-4741-9406-2a55eb922bb2-km-272.5487624676751-in_0_0" index="0" allow="rail rail_electric" speed="110.00" length="0.10" shape="4090.91,7180.69 4090.91,7180.69"/>
    </edge>
    <edge id=":035bb0a9-c88f-4741-9406-2a55eb922bb2-km-272.5487624676751-in_1" function="internal" bidi=":035bb0a9-c88f-4741-9406-2a55eb922bb2-km-272.5487624676751-in_0">
        <lane id=":035bb0a9-c88f-4741-9406-2a55eb922bb2-km-272.5487624676751-in_1_0" index="0" allow="rail rail_electric" speed="110.00" length="0.10" shape="4090.91,7180.69 4090.91,7180.69"/>
    </edge>
    <edge id=":03752ccf-f451-4a32-9cc4-513082fbf25e-km-25-gegen_0" function="internal" bidi=":03752ccf-f451-4a32-9cc4-513082fbf25e-km-25-gegen_1">
        <lane id=":03752ccf-f451-4a32-9cc4-513082fbf25e-km-25-gegen_0_0" index="0" allow="rail rail_electric" speed="110.00" length="0.10" shape="6622.26,6645.87 6622.26,6645.87"/>
    </edge>
    <edge id=":03752ccf-f451-4a32-9cc4-513082fbf25e-km-25-gegen_1" function="internal" bidi=":03752ccf-f451-4a32-9cc4-513082fbf25e-km-25-gegen_0">
        <lane id=":03752ccf-f451-4a32-9cc4-513082fbf25e-km-25-gegen_1_0" index="0" allow="rail rail_electric" speed="110.00" length="0.10" shape="6622.26,6645.87 6622.26,6645.87"/>
    </edge>
    <edge id=":0461b_0" function="internal" bidi=":0461b_3">
        <lane id=":0461b_0_0" index="0" allow="rail rail_electric" speed="110.00" length="2.52" shape="3847.25,7686.78 3846.66,7684.34"/>
    </edge>
    <edge id=":0461b_1" function="internal" bidi=":0461b_2">
        <lane id=":0461b_1_0" index="0" allow="rail rail_electric" speed="110.00" length="2.52" shape="3847.25,7686.78 3847.05,7686.06 3846.95,7685.56 3846.88,7685.05 3846.81,7684.31"/>
    </edge>
    <edge id=":0461b_2" function="internal" bidi=":0461b_1">
        <lane id=":0461b_2_0" index="0" allow="rail rail_electric" speed="110.00" length="2.52" shape="3846.81,7684.31 3846.88,7685.05 3846.95,7685.56 3847.05,7686.06 3847.25,7686.78"/>
    </edge>
    <edge id=":0461b_3" function="internal" bidi=":0461b_0">
        <lane id=":0461b_3_0" index="0" allow="rail rail_electric" speed="110.00" length="2.52" shape="3846.66,7684.34 3847.25,7686.78"/>
    </edge>
    <edge id=":04c21_0" function="internal" bidi=":04c21_3">
        <lane id=":04c21_0_0" index="0" allow="rail rail_electric" speed="110.00" length="3.00" shape="5782.35,5979.54 5779.47,5980.36"/>
    </edge>
    <edge id=":04c21_1" function="internal" bidi=":04c21_2">
        <lane id=":04c21_1_0" index="0" allow="rail rail_electric" speed="110.00" length="3.00" shape="5782.35,5979.54 5779.44,5980.24"/>
    </edge>
    <edge id=":04c21_2" function="internal" bidi=":04c21_1">
        <lane id=":04c21_2_0" index="0" allow="rail rail_electric" speed="110.00" length="3.00" shape="5779.44,5980.24 5782.35,5979.54"/>
    </edge>
    <edge id=":04c21_3" function="internal" bidi=":04c21_0">
        <lane id=":04c21_3_0" index="0" allow="rail rail_electric" speed="110.00" length="3.00" shape="5779.47,5980.36 5782.35,5979.54"/>
    </edge>
    <edge id=":04cfd06b-d1f8-432b-a8f8-21bad07a2cd5-km-101.08615664205941-in_0" function="internal" bidi=":04cfd06b-d1f8-432b-a8f8-21bad07a2cd5-km-101.08615664205941-in_1">
        <lane id=":04cfd06b-d1f8-432b-a8f8-21bad07a2cd5-km-101.08615664205941-in_0_0" index="0" allow="rail rail_electric" speed="110.00" length="0.10" shape="4467.24,7400.67 4467.24,7400.67"/>
    </edge>
    <edge id=":04cfd06b-d1f8-432b-a8f8-21bad07a2cd5-km-101.08615664205941-in_1" function="internal" bidi=":04cfd06b-d1f8-432b-a8f8-21bad07a2cd5-km-101.08615664205941-in_0">
        <lane id=":04cfd06b-d1f8-432b-a8f8-21bad07a2cd5-km-101.08615664205941-in_1_0" index="0" allow="rail rail_electric" speed="110.00" length="0.10" shape="4467.24,7400.67 4467.24,7400.67"/>
    </edge>
    <edge id=":04cfd06b-d1f8-432b-a8f8-21bad07a2cd5-km-25-gegen_0" function="internal" bidi=":04cfd06b-d1f8-432b-a8f8-21bad07a2cd5-km-25-gegen_1">
        <lane id=":04cfd06b-d1f8-432b-a8f8-21bad07a2cd5-km-25-gegen_0_0" index="0" allow="rail rail_electric" speed="110.00" length="0.10" shape="4465.12,7324.61 4465.12,7324.61"/>
    </edge>
    <edge id=":04cfd06b-d1f8-432b-a8f8-21bad07a2cd5-km-25-gegen_1" function="internal" bidi=":04cfd06b-d1f8-432b-a8f8-21bad07a2cd5-km-25-gegen_0">
        <lane id=":04cfd06b-d1f8-432b-a8f8-21bad07a2cd5-km-25-gegen_1_0" index="0" allow="rail rail_electric" speed="110.00" length="0.10" shape="4465.12,7324.61 4465.12,7324.61"/>
    </edge>
    <edge id=":05128a06-41da-45d3-aada-dda6783a7d89-km-25-gegen_0" function="internal" bidi=":05128a06-41da-45d3-aada-dda6783a7d89-km-25-gegen_1">
        <lane id=":05128a06-41da-45d3-aada-dda6783a7d89-km-25-gegen_0_0" index="0" allow="rail rail_electric" speed="110.00" length="0.10" shape="4871.08,7948.45 4871.08,7948.45"/>
    </edge>
    <edge id=":05128a06-41da-45d3-aada-dda6783a7d89-km-25-gegen_1" function="internal" bidi=":05128a06-41da-45d3-aada-dda6783a7d89-km-25-gegen_0">
        <lane id=":05128a06-41da-45d3-aada-dda6783a7d89-km-25-gegen_1_0" index="0" allow="rail rail_electric" speed="110.00" length="0.10" shape="4871.08,7948.45 4871.08,7948.45"/>
    </edge>
    <edge id=":056578f9-713c-40b1-9588-679e257e1390-km-25-gegen_0" function="internal" bidi=":056578f9-713c-40b1-9588-679e257e1390-km-25-gegen_1">
        <lane id=":056578f9-713c-40b1-9588-679e257e1390-km-25-gegen_0_0" index="0" allow="rail rail_electric" speed="110.00" length="0.10" shape="10150.77,4496.14 10150.77,4496.14"/>
    </edge>
    <edge id=":056578f9-713c-40b1-9588-679e257e1390-km-25-gegen_1" function="internal" bidi=":056578f9-713c-40b1-9588-679e257e1390-km-25-gegen_0">
        <lane id=":056578f9-713c-40b1-9588-679e257e1390-km-25-gegen_1_0" index="0" allow="rail rail_electric" speed="110.00" length="0.10" shape="10150.77,4496.14 10150.77,4496.14"/>
    </edge>
    <edge id=":056578f9-713c-40b1-9588-679e257e1390-km-95.25638756029988-in_0" function="internal" bidi=":056578f9-713c-40b1-9588-679e257e1390-km-95.25638756029988-in_1">
        <lane id=":056578f9-713c-40b1-9588-679e257e1390-km-95.25638756029988-in_0_0" index="0" allow="rail rail_electric" speed="110.00" length="0.10" shape="10102.84,4547.51 10102.84,4547.51"/>
    </edge>
    <edge id=":056578f9-713c-40b1-9588-679e257e1390-km-95.25638756029988-in_1" function="internal" bidi=":056578f9-713c-40b1-9588-679e257e1390-km-95.25638756029988-in_0">
        <lane id=":056578f9-713c-40b1-9588-679e257e1390-km-95.25638756029988-in_1_0" index="0" allow="rail rail_electric" speed="110.00" length="0.10" shape="10102.84,4547.51 10102.84,4547.51"/>
    </edge>
    <edge id=":05bf5_0" function="internal" bidi=":05bf5_3">
        <lane id=":05bf5_0_0" index="0" allow="rail rail_electric" speed="110.00" length="26.07" shape="4115.25,7417.92 4113.82,7412.65 4111.42,7405.48 4108.90,7398.35 4107.07,7393.18"/>
    </edge>
    <edge id=":05bf5_1" function="internal" bidi=":05bf5_2">
        <lane id=":05bf5_1_0" index="0" allow="rail rail_electric" speed="110.00" length="26.08" shape="4115.25,7417.92 4110.36,7392.31"/>
    </edge>
    <edge id=":05bf5_2" function="internal" bidi=":05bf5_1">
        <lane id=":05bf5_2_0" index="0" allow="rail rail_electric" speed="110.00" length="26.08" shape="4110.36,7392.31 4115.25,7417.92"/>
    </edge>
    <edge id=":05bf5_3" function="internal" bidi=":05bf5_0">
        <lane id=":05bf5_3_0" index="0" allow="rail rail_electric" speed="110.00" length="26.07" shape="4107.07,7393.18 4108.90,7398.35 4111.42,7405.48 4113.82,7412.65 4115.25,7417.92"/>
    </edge>
    <edge id=":05c7eeda-6cd2-44ac-9c3f-5fdd8d1bc48f-km-138.17109830433338-in_0" function="internal" bidi=":05c7eeda-6cd2-44ac-9c3f-5fdd8d1bc48f-km-138.17109830433338-in_1">
        <lane id=":05c7eeda-6cd2-44ac-9c3f-5fdd8d1bc48f-km-138.17109830433338-in_0_0" index="0" allow="rail rail_electric" speed="110.00" length="0.10" shape="5623.05,8111.72 5623.05,8111.72"/>
    </edge>
    <edge id=":05c7eeda-6cd2-44ac-9c3f-5fdd8d1bc48f-km-138.17109830433338-in_1" function="internal" bidi=":05c7eeda-6cd2-44ac-9c3f-5fdd8d1bc48f-km-138.17109830433338-in_0">
        <lane id=":05c7eeda-6cd2-44ac-9c3f-5fdd8d1bc48f-km-138.17109830433338-in_1_0" index="0" allow="rail rail_electric" speed="110.00" length="0.10" shape="5623.05,8111.72 5623.05,8111.72"/>
    </edge>
    <edge id=":05c7eeda-6cd2-44ac-9c3f-5fdd8d1bc48f-km-25-gegen_0" function="internal" bidi=":05c7eeda-6cd2-44ac-9c3f-5fdd8d1bc48f-km-25-gegen_1">
        <lane id=":05c7eeda-6cd2-44ac-9c3f-5fdd8d1bc48f-km-25-gegen_0_0" index="0" allow="rail rail_electric" speed="110.00" length="0.10" shape="5510.89,8126.85 5510.89,8126.85"/>
    </edge>
    <edge id=":05c7eeda-6cd2-44ac-9c3f-5fdd8d1bc48f-km-25-gegen_1" function="internal" bidi=":05c7eeda-6cd2-44ac-9c3f-5fdd8d1bc48f-km-25-gegen_0">
        <lane id=":05c7eeda-6cd2-44ac-9c3f-5fdd8d1bc48f-km-25-gegen_1_0" index="0" allow="rail rail_electric" speed="110.00" length="0.10" shape="5510.89,8126.85 5510.89,8126.85"/>
    </edge>
    <edge id=":06793584-c927-408b-9f4b-b942048f7740-km-1453.541904487744-in_0" function="internal" bidi=":06793584-c927-408b-9f4b-b942048f7740-km-1453.541904487744-in_1">
        <lane id=":06793584-c927-408b-9f4b-b942048f7740-km-1453.541904487744-in_0_0" index="0" allow="rail rail_electric" speed="110.00" length="0.10" shape="11007.54,2034.82 11007.54,2034.82"/>
    </edge>
    <edge id=":06793584-c927-408b-9f4b-b942048f7740-km-1453.541904487744-in_1" function="internal" bidi=":06793584-c927-408b-9f4b-b942048f7740-km-1453.541904487744-in_0">
        <lane id=":06793584-c927-408b-9f4b-b942048f7740-km-1453.541904487744-in_1_0" index="0" allow="rail rail_electric" speed="110.00" length="0.10" shape="11007.54,2034.82 11007.54,2034.82"/>
    </edge>
    <edge id=":06793584-c927-408b-9f4b-b942048f7740-km-25-gegen_0" function="internal" bidi=":06793584-c927-408b-9f4b-b942048f7740-km-25-gegen_1">
        <lane id=":06793584-c927-408b-9f4b-b942048f7740-km-25-gegen_0_0" index="0" allow="rail rail_electric" speed="110.00" length="0.10" shape="9879.69,2592.38 9879.69,2592.38"/>
    </edge>
    <edge id=":06793584-c927-408b-9f4b-b942048f7740-km-25-gegen_1" function="internal" bidi=":06793584-c927-408b-9f4b-b942048f7740-km-25-gegen_0">
        <lane id=":06793584-c927-408b-9f4b-b942048f7740-km-25-gegen_1_0" index="0" allow="rail rail_electric" speed="110.00" length="0.10" shape="9879.69,2592.38 9879.69,2592.38"/>
    </edge>
    <edge id=":0681c_0" function="internal" bidi=":0681c_3">
        <lane id=":0681c_0_0" index="0" allow="rail rail_electric" speed="110.00" length="22.81" shape="4462.78,7400.53 4461.43,7395.76 4459.32,7389.68 4457.09,7383.64 4455.37,7378.97"/>
    </edge>
    <edge id=":0681c_1" function="internal" bidi=":0681c_2">
        <lane id=":0681c_1_0" index="0" allow="rail rail_electric" speed="110.00" length="22.81" shape="4462.78,7400.53 4458.69,7378.09"/>
    </edge>
    <edge id=":0681c_2" function="internal" bidi=":0681c_1">
        <lane id=":0681c_2_0" index="0" allow="rail rail_electric" speed="110.00" length="22.81" shape="4458.69,7378.09 4462.78,7400.53"/>
    </edge>
    <edge id=":0681c_3" function="internal" bidi=":0681c_0">
        <lane id=":0681c_3_0" index="0" allow="rail rail_electric" speed="110.00" length="22.81" shape="4455.37,7378.97 4457.09,7383.64 4459.32,7389.68 4461.43,7395.76 4462.78,7400.53"/>
    </edge>
    <edge id=":06ab5_0" function="internal" bidi=":06ab5_3">
        <lane id=":06ab5_0_0" index="0" allow="rail rail_electric" speed="110.00" length="3.00" shape="8703.49,5787.48 8700.54,5788.03"/>
    </edge>
    <edge id=":06ab5_1" function="internal" bidi=":06ab5_2">
        <lane id=":06ab5_1_0" index="0" allow="rail rail_electric" speed="110.00" length="3.00" shape="8703.49,5787.48 8700.52,5787.94"/>
    </edge>
    <edge id=":06ab5_2" function="internal" bidi=":06ab5_1">
        <lane id=":06ab5_2_0" index="0" allow="rail rail_electric" speed="110.00" length="3.00" shape="8700.52,5787.94 8703.49,5787.48"/>
    </edge>
    <edge id=":06ab5_3" function="internal" bidi=":06ab5_0">
        <lane id=":06ab5_3_0" index="0" allow="rail rail_electric" speed="110.00" length="3.00" shape="8700.54,5788.03 8703.49,5787.48"/>
    </edge>
    <edge id=":06b3a265-3298-485f-8c04-660fbcfabe83-km-25-gegen_0" function="internal" bidi=":06b3a265-3298-485f-8c04-660fbcfabe83-km-25-gegen_1">
        <lane id=":06b3a265-3298-485f-8c04-660fbcfabe83-km-25-gegen_0_0" index="0" allow="rail rail_electric" speed="110.00" length="0.10" shape="9110.67,5887.60 9110.67,5887.60"/>
    </edge>
    <edge id=":06b3a265-3298-485f-8c04-660fbcfabe83-km-25-gegen_1" function="internal" bidi=":06b3a265-3298-485f-8c04-660fbcfabe83-km-25-gegen_0">
        <lane id=":06b3a265-3298-485f-8c04-660fbcfabe83-km-25-gegen_1_0" index="0" allow="rail rail_electric" speed="110.00" length="0.10" shape="9110.67,5887.60 9110.67,5887.60"/>
    </edge>
    <edge id=":06b3a265-3298-485f-8c04-660fbcfabe83-km-340.8087986779541-in_0" function="internal" bidi=":06b3a265-3298-485f-8c04-660fbcfabe83-km-340.8087986779541-in_1">
        <lane id=":06b3a265-3298-485f-8c04-660fbcfabe83-km-340.8087986779541-in_0_0" index="0" allow="rail rail_electric" speed="110.00" length="0.10" shape="9131.71,5572.50 9131.71,5572.50"/>
    </edge>
    <edge id=":06b3a265-3298-485f-8c04-660fbcfabe83-km-340.8087986779541-in_1" function="internal" bidi=":06b3a265-3298-485f-8c04-660fbcfabe83-km-340.8087986779541-in_0">
        <lane id=":06b3a265-3298-485f-8c04-660fbcfabe83-km-340.8087986779541-in_1_0" index="0" allow="rail rail_electric" speed="110.00" length="0.10" shape="9131.71,5572.50 9131.71,5572.50"/>
    </edge>
    <edge id=":06f91_0" function="internal" bidi=":06f91_3">
        <lane id=":06f91_0_0" index="0" allow="rail rail_electric" speed="110.00" length="21.39" shape="3778.95,7388.70 3777.61,7384.16 3775.57,7378.57 3773.41,7373.03 3771.68,7368.60"/>
    </edge>
    <edge id=":06f91_1" function="internal" bidi=":06f91_2">
        <lane id=":06f91_1_0" index="0" allow="rail rail_electric" speed="110.00" length="21.39" shape="3778.95,7388.70 3775.01,7367.68"/>
    </edge>
    <edge id=":06f91_2" function="internal" bidi=":06f91_1">
        <lane id=":06f91_2_0" index="0" allow="rail rail_electric" speed="110.00" length="21.39" shape="3775.01,7367.68 3778.95,7388.70"/>
    </edge>
    <edge id=":06f91_3" function="internal" bidi=":06f91_0">
        <lane id=":06f91_3_0" index="0" allow="rail rail_electric" speed="110.00" length="21.39" shape="3771.68,7368.60 3773.41,7373.03 3775.57,7378.57 3777.61,7384.16 3778.95,7388.70"/>
    </edge>
    <edge id=":06f93_0" function="internal" bidi=":06f93_3">
        <lane id=":06f93_0_0" index="0" allow="rail rail_electric" speed="110.00" length="2.93" shape="7581.00,6005.25 7578.13,6005.83"/>
    </edge>
    <edge id=":06f93_1" function="internal" bidi=":06f93_2">
        <lane id=":06f93_1_0" index="0" allow="rail rail_electric" speed="110.00" length="2.93" shape="7580.99,6005.18 7578.13,6005.83"/>
    </edge>
    <edge id=":06f93_2" function="internal" bidi=":06f93_1">
        <lane id=":06f93_2_0" index="0" allow="rail rail_electric" speed="110.00" length="2.93" shape="7578.13,6005.83 7580.99,6005.18"/>
    </edge>
    <edge id=":06f93_3" function="internal" bidi=":06f93_0">
        <lane id=":06f93_3_0" index="0" allow="rail rail_electric" speed="110.00" length="2.93" shape="7578.13,6005.83 7581.00,6005.25"/>
    </edge>
    <edge id=":07796_0" function="internal">
        <lane id=":07796_0_0" index="0" allow="rail rail_electric" speed="0.10" length="0.10" shape="10126.87,4582.65 10126.87,4582.65"/>
    </edge>
    <edge id=":07d74_0" function="internal" bidi=":07d74_3">
        <lane id=":07d74_0_0" index="0" allow="rail rail_electric" speed="110.00" length="3.01" shape="10532.83,3708.75 10532.30,3709.47 10531.94,3709.97 10531.62,3710.49 10531.18,3711.26"/>
    </edge>
    <edge id=":07d74_1" function="internal" bidi=":07d74_2">
        <lane id=":07d74_1_0" index="0" allow="rail rail_electric" speed="110.00" length="3.00" shape="10532.64,3708.64 10531.18,3711.26"/>
    </edge>
    <edge id=":07d74_2" function="internal" bidi=":07d74_1">
        <lane id=":07d74_2_0" index="0" allow="rail rail_electric" speed="110.00" length="3.00" shape="10531.18,3711.26 10532.64,3708.64"/>
    </edge>
    <edge id=":07d74_3" function="internal" bidi=":07d74_0">
        <lane id=":07d74_3_0" index="0" allow="rail rail_electric" speed="110.00" length="3.01" shape="10531.18,3711.26 10531.62,3710.49 10531.94,3709.97 10532.30,3709.47 10532.83,3708.75"/>
    </edge>
    <edge id=":083d380b-42af-4299-a96b-81f55affa2cf-km-639.6807572957028-in_0" function="internal" bidi=":083d380b-42af-4299-a96b-81f55affa2cf-km-639.6807572957028-in_1">
        <lane id=":083d380b-42af-4299-a96b-81f55affa2cf-km-639.6807572957028-in_0_0" index="0" allow="rail rail_electric" speed="110.00" length="0.10" shape="12305.14,545.46 12305.14,545.46"/>
    </edge>
    <edge id=":083d380b-42af-4299-a96b-81f55affa2cf-km-639.6807572957028-in_1" function="internal" bidi=":083d380b-42af-4299-a96b-81f55affa2cf-km-639.6807572957028-in_0">
        <lane id=":083d380b-42af-4299-a96b-81f55affa2cf-km-639.6807572957028-in_1_0" index="0" allow="rail rail_electric" speed="110.00" length="0.10" shape="12305.14,545.46 12305.14,545.46"/>
    </edge>
    <edge id=":0908f_0" function="internal" bidi=":0908f_3">
        <lane id=":0908f_0_0" index="0" allow="rail rail_electric" speed="110.00" length="3.04" shape="9109.30,5910.91 9109.14,5911.80 9109.04,5912.41 9108.96,5913.02 9108.88,5913.92"/>
    </edge>
    <edge id=":0908f_1" function="internal" bidi=":0908f_2">
        <lane id=":0908f_1_0" index="0" allow="rail rail_electric" speed="110.00" length="3.03" shape="9109.11,5910.90 9108.88,5913.92"/>
    </edge>
    <edge id=":0908f_2" function="internal" bidi=":0908f_1">
        <lane id=":0908f_2_0" index="0" allow="rail rail_electric" speed="110.00" length="3.03" shape="9108.88,5913.92 9109.11,5910.90"/>
    </edge>
    <edge id=":0908f_3" function="internal" bidi=":0908f_0">
        <lane id=":0908f_3_0" index="0" allow="rail rail_electric" speed="110.00" length="3.04" shape="9108.88,5913.92 9108.96,5913.02 9109.04,5912.41 9109.14,5911.80 9109.30,5910.91"/>
    </edge>
    <edge id=":099c7a80-568b-4e8c-9f05-83c3e9fc1765-km-25-gegen_0" function="internal">
        <lane id=":099c7a80-568b-4e8c-9f05-83c3e9fc1765-km-25-gegen_0_0" index="0" allow="rail rail_electric" speed="110.00" length="0.35" shape="7469.29,5637.35 7468.94,5637.43"/>
    </edge>
    <edge id=":099c7a80-568b-4e8c-9f05-83c3e9fc1765-km-25-gegen_1" function="internal">
        <lane id=":099c7a80-568b-4e8c-9f05-83c3e9fc1765-km-25-gegen_1_0" index="0" allow="rail rail_electric" speed="110.00" length="0.35" shape="7468.94,5637.43 7469.29,5637.35"/>
    </edge>
    <edge id=":099c7a80-568b-4e8c-9f05-83c3e9fc1765-km-684.1865362500068-in_0" function="internal">
        <lane id=":099c7a80-568b-4e8c-9f05-83c3e9fc1765-km-684.1865362500068-in_0_0" index="0" allow="rail rail_electric" speed="110.00" length="0.32" shape="7903.35,5543.47 7903.04,5543.54"/>
    </edge>
    <edge id=":099c7a80-568b-4e8c-9f05-83c3e9fc1765-km-684.1865362500068-in_1" function="internal">
        <lane id=":099c7a80-568b-4e8c-9f05-83c3e9fc1765-km-684.1865362500068-in_1_0" index="0" allow="rail rail_electric" speed="110.00" length="0.32" shape="7903.04,5543.54 7903.35,5543.47"/>
    </edge>
    <edge id=":09f59_0" function="internal" bidi=":09f59_3">
        <lane id=":09f59_0_0" index="0" allow="rail rail_electric" speed="110.00" length="3.01" shape="9128.17,6479.77 9128.08,6482.78"/>
    </edge>
    <edge id=":09f59_1" function="internal" bidi=":09f59_2">