<?xml version="1.0" encoding="UTF-8"?>

<!-- generated on 2023-05-15 14:12:36 by Eclipse SUMO netedit Version 1.15.0
-->

<additional xmlns:xsi="http://www.w3.org/2001/XMLSchema-instance" xsi:noNamespaceSchemaLocation="http://sumo.dlr.de/xsd/additional_file.xsd">
    <!-- StoppingPlaces -->
    <busStop id="bs_0" lane="53df6-1_0" startPos="680.29" endPos="780.29"/>
    <busStop id="bs_1" lane="70b6a-1_0" startPos="582.16" endPos="682.16"/>
    <busStop id="bs_2" lane="89f4a-1_0" startPos="336.76" endPos="436.76"/>
    <busStop id="bs_3" lane="f3db4-1_0" startPos="1180.05" endPos="1280.05"/>
    <busStop id="bs_4" lane="f230c-1_0" startPos="184.55" endPos="284.55"/>
    <busStop id="bs_5" lane="95b08-2_0" startPos="855.92" endPos="955.92"/>
    <busStop id="bs_6" lane="ecefc-1-re_0" startPos="994.44" endPos="1094.44"/>
    <busStop id="bs_7" lane="58847-4_0" startPos="355.70" endPos="455.70"/>
</additional>
