<?xml version="1.0" encoding="UTF-8"?>

<!-- generated on 2023-05-15 14:07:30 by Eclipse SUMO netconvert Version 1.12.0
<configuration xmlns:xsi="http://www.w3.org/2001/XMLSchema-instance" xsi:noNamespaceSchemaLocation="http://sumo.dlr.de/xsd/netconvertConfiguration.xsd">

    <input>
        <node-files value="sumo-config/schwarze_pumpe_v1.nod.xml"/>
        <edge-files value="sumo-config/schwarze_pumpe_v1.edg.xml"/>
        <connection-files value="sumo-config/schwarze_pumpe_v1.con.xml"/>
    </input>

    <output>
        <output-file value="sumo-config/schwarze_pumpe_v1.net.xml"/>
    </output>

    <railway>
        <railway.topology.repair value="true"/>
        <railway.topology.repair.connect-straight value="true"/>
        <railway.topology.repair.stop-turn value="true"/>
        <railway.topology.all-bidi value="false"/>
    </railway>

    <report>
        <aggregate-warnings value="5"/>
    </report>

</configuration>
-->

<net version="1.9" junctionCornerDetail="5" limitTurnSpeed="5.50" xmlns:xsi="http://www.w3.org/2001/XMLSchema-instance" xsi:noNamespaceSchemaLocation="http://sumo.dlr.de/xsd/net_file.xsd">

    <location netOffset="2506174.81,-3459405.32" convBoundary="0.00,0.00,12719.19,11737.42" origBoundary="-2506174.81,3459405.32,-2493455.62,3471142.74" projParameter="!"/>

    <edge id=":006d9_0" function="internal" bidi=":006d9_3">
        <lane id=":006d9_0_0" index="0" allow="rail rail_electric" speed="110.00" length="17.49" shape="10624.16,3579.27 10622.50,3583.04 10621.12,3587.43 10619.94,3591.90 10618.86,3595.91"/>
    </edge>
    <edge id=":006d9_1" function="internal" bidi=":006d9_2">
        <lane id=":006d9_1_0" index="0" allow="rail rail_electric" speed="110.00" length="17.50" shape="10624.16,3579.27 10615.62,3594.54"/>
    </edge>
    <edge id=":006d9_2" function="internal" bidi=":006d9_1">
        <lane id=":006d9_2_0" index="0" allow="rail rail_electric" speed="110.00" length="17.50" shape="10615.62,3594.54 10624.16,3579.27"/>
    </edge>
    <edge id=":006d9_3" function="internal" bidi=":006d9_0">
        <lane id=":006d9_3_0" index="0" allow="rail rail_electric" speed="110.00" length="17.49" shape="10618.86,3595.91 10619.94,3591.90 10621.12,3587.43 10622.50,3583.04 10624.16,3579.27"/>
    </edge>
    <edge id=":008a9c6a-e387-40a9-9009-a36c867165fe-km-1015.515989676742-in_0" function="internal" bidi=":008a9c6a-e387-40a9-9009-a36c867165fe-km-1015.515989676742-in_1">
        <lane id=":008a9c6a-e387-40a9-9009-a36c867165fe-km-1015.515989676742-in_0_0" index="0" allow="rail rail_electric" speed="110.00" length="0.10" shape="7604.08,6000.62 7604.08,6000.62"/>
    </edge>
    <edge id=":008a9c6a-e387-40a9-9009-a36c867165fe-km-1015.515989676742-in_1" function="internal" bidi=":008a9c6a-e387-40a9-9009-a36c867165fe-km-1015.515989676742-in_0">
        <lane id=":008a9c6a-e387-40a9-9009-a36c867165fe-km-1015.515989676742-in_1_0" index="0" allow="rail rail_electric" speed="110.00" length="0.10" shape="7604.08,6000.62 7604.08,6000.62"/>
    </edge>
    <edge id=":008a9c6a-e387-40a9-9009-a36c867165fe-km-25-gegen_0" function="internal" bidi=":008a9c6a-e387-40a9-9009-a36c867165fe-km-25-gegen_1">
        <lane id=":008a9c6a-e387-40a9-9009-a36c867165fe-km-25-gegen_0_0" index="0" allow="rail rail_electric" speed="110.00" length="0.10" shape="8576.49,5812.40 8576.49,5812.40"/>
    </edge>
    <edge id=":008a9c6a-e387-40a9-9009-a36c867165fe-km-25-gegen_1" function="internal" bidi=":008a9c6a-e387-40a9-9009-a36c867165fe-km-25-gegen_0">
        <lane id=":008a9c6a-e387-40a9-9009-a36c867165fe-km-25-gegen_1_0" index="0" allow="rail rail_electric" speed="110.00" length="0.10" shape="8576.49,5812.40 8576.49,5812.40"/>
    </edge>
    <edge id=":00c7304e-d4cc-4018-9b53-fe9842efada1-km-1046.991806851688-in_0" function="internal" bidi=":00c7304e-d4cc-4018-9b53-fe9842efada1-km-1046.991806851688-in_1">
        <lane id=":00c7304e-d4cc-4018-9b53-fe9842efada1-km-1046.991806851688-in_0_0" index="0" allow="rail rail_electric" speed="110.00" length="0.10" shape="8605.94,5801.50 8605.94,5801.50"/>
    </edge>
    <edge id=":00c7304e-d4cc-4018-9b53-fe9842efada1-km-1046.991806851688-in_1" function="internal" bidi=":00c7304e-d4cc-4018-9b53-fe9842efada1-km-1046.991806851688-in_0">
        <lane id=":00c7304e-d4cc-4018-9b53-fe9842efada1-km-1046.991806851688-in_1_0" index="0" allow="rail rail_electric" speed="110.00" length="0.10" shape="8605.94,5801.50 8605.94,5801.50"/>
    </edge>
    <edge id=":00c7304e-d4cc-4018-9b53-fe9842efada1-km-25-gegen_0" function="internal" bidi=":00c7304e-d4cc-4018-9b53-fe9842efada1-km-25-gegen_1">
        <lane id=":00c7304e-d4cc-4018-9b53-fe9842efada1-km-25-gegen_0_0" index="0" allow="rail rail_electric" speed="110.00" length="0.10" shape="7603.79,5999.37 7603.79,5999.37"/>
    </edge>
    <edge id=":00c7304e-d4cc-4018-9b53-fe9842efada1-km-25-gegen_1" function="internal" bidi=":00c7304e-d4cc-4018-9b53-fe9842efada1-km-25-gegen_0">
        <lane id=":00c7304e-d4cc-4018-9b53-fe9842efada1-km-25-gegen_1_0" index="0" allow="rail rail_electric" speed="110.00" length="0.10" shape="7603.79,5999.37 7603.79,5999.37"/>
    </edge>
    <edge id=":02877_0" function="internal" bidi=":02877_3">
        <lane id=":02877_0_0" index="0" allow="rail rail_electric" speed="110.00" length="2.97" shape="7818.62,5589.28 7815.77,5590.08"/>
    </edge>
    <edge id=":02877_1" function="internal" bidi=":02877_2">
        <lane id=":02877_1_0" index="0" allow="rail rail_electric" speed="110.00" length="2.97" shape="7818.62,5589.28 7815.75,5590.02"/>
    </edge>
    <edge id=":02877_2" function="internal" bidi=":02877_1">
        <lane id=":02877_2_0" index="0" allow="rail rail_electric" speed="110.00" length="2.97" shape="7815.75,5590.02 7818.62,5589.28"/>
    </edge>
    <edge id=":02877_3" function="internal" bidi=":02877_0">
        <lane id=":02877_3_0" index="0" allow="rail rail_electric" speed="110.00" length="2.97" shape="7815.77,5590.08 7818.62,5589.28"/>
    </edge>
    <edge id=":029f6fea-78b3-42f7-a98f-3735b88a5365-km-112.64858699766668-in_0" function="internal" bidi=":029f6fea-78b3-42f7-a98f-3735b88a5365-km-112.64858699766668-in_1">
        <lane id=":029f6fea-78b3-42f7-a98f-3735b88a5365-km-112.64858699766668-in_0_0" index="0" allow="rail rail_electric" speed="110.00" length="0.10" shape="4055.72,7230.13 4055.72,7230.13"/>
    </edge>
    <edge id=":029f6fea-78b3-42f7-a98f-3735b88a5365-km-112.64858699766668-in_1" function="internal" bidi=":029f6fea-78b3-42f7-a98f-3735b88a5365-km-112.64858699766668-in_0">
        <lane id=":029f6fea-78b3-42f7-a98f-3735b88a5365-km-112.64858699766668-in_1_0" index="0" allow="rail rail_electric" speed="110.00" length="0.10" shape="4055.72,7230.13 4055.72,7230.13"/>
    </edge>
    <edge id=":029f6fea-78b3-42f7-a98f-3735b88a5365-km-25-gegen_0" function="internal" bidi=":029f6fea-78b3-42f7-a98f-3735b88a5365-km-25-gegen_1">
        <lane id=":029f6fea-78b3-42f7-a98f-3735b88a5365-km-25-gegen_0_0" index="0" allow="rail rail_electric" speed="110.00" length="0.10" shape="4058.66,7317.73 4058.66,7317.73"/>
    </edge>
    <edge id=":029f6fea-78b3-42f7-a98f-3735b88a5365-km-25-gegen_1" function="internal" bidi=":029f6fea-78b3-42f7-a98f-3735b88a5365-km-25-gegen_0">
        <lane id=":029f6fea-78b3-42f7-a98f-3735b88a5365-km-25-gegen_1_0" index="0" allow="rail rail_electric" speed="110.00" length="0.10" shape="4058.66,7317.73 4058.66,7317.73"/>
    </edge>
    <edge id=":02f98_0" function="internal">
        <lane id=":02f98_0_0" index="0" allow="rail rail_electric" speed="0.10" length="0.10" shape="9025.17,5947.05 9025.17,5947.05"/>
    </edge>
    <edge id=":039ca7a6-4d69-46aa-9bca-acaafb1958e0-km-25-gegen_0" function="internal" bidi=":039ca7a6-4d69-46aa-9bca-acaafb1958e0-km-25-gegen_1">
        <lane id=":039ca7a6-4d69-46aa-9bca-acaafb1958e0-km-25-gegen_0_0" index="0" allow="rail rail_electric" speed="110.00" length="0.10" shape="5976.22,5924.87 5976.22,5924.87"/>
    </edge>
    <edge id=":039ca7a6-4d69-46aa-9bca-acaafb1958e0-km-25-gegen_1" function="internal" bidi=":039ca7a6-4d69-46aa-9bca-acaafb1958e0-km-25-gegen_0">
        <lane id=":039ca7a6-4d69-46aa-9bca-acaafb1958e0-km-25-gegen_1_0" index="0" allow="rail rail_electric" speed="110.00" length="0.10" shape="5976.22,5924.87 5976.22,5924.87"/>
    </edge>
    <edge id=":039ca7a6-4d69-46aa-9bca-acaafb1958e0-km-84.96292463543806-in_0" function="internal" bidi=":039ca7a6-4d69-46aa-9bca-acaafb1958e0-km-84.96292463543806-in_1">
        <lane id=":039ca7a6-4d69-46aa-9bca-acaafb1958e0-km-84.96292463543806-in_0_0" index="0" allow="rail rail_electric" speed="110.00" length="0.10" shape="6034.23,5909.69 6034.23,5909.69"/>
    </edge>
    <edge id=":039ca7a6-4d69-46aa-9bca-acaafb1958e0-km-84.96292463543806-in_1" function="internal" bidi=":039ca7a6-4d69-46aa-9bca-acaafb1958e0-km-84.96292463543806-in_0">
        <lane id=":039ca7a6-4d69-46aa-9bca-acaafb1958e0-km-84.96292463543806-in_1_0" index="0" allow="rail rail_electric" speed="110.00" length="0.10" shape="6034.23,5909.69 6034.23,5909.69"/>
    </edge>
    <edge id=":039d2bf4-f695-4913-a034-aa9277611101-km-25-gegen_0" function="internal" bidi=":039d2bf4-f695-4913-a034-aa9277611101-km-25-gegen_1">
        <lane id=":039d2bf4-f695-4913-a034-aa9277611101-km-25-gegen_0_0" index="0" allow="rail rail_electric" speed="110.00" length="0.10" shape="5912.92,6477.35 5912.92,6477.35"/>
    </edge>
    <edge id=":039d2bf4-f695-4913-a034-aa9277611101-km-25-gegen_1" function="internal" bidi=":039d2bf4-f695-4913-a034-aa9277611101-km-25-gegen_0">
        <lane id=":039d2bf4-f695-4913-a034-aa9277611101-km-25-gegen_1_0" index="0" allow="rail rail_electric" speed="110.00" length="0.10" shape="5912.92,6477.35 5912.92,6477.35"/>
    </edge>
    <edge id=":039d2bf4-f695-4913-a034-aa9277611101-km-712.8025851262547-in_0" function="internal" bidi=":039d2bf4-f695-4913-a034-aa9277611101-km-712.8025851262547-in_1">
        <lane id=":039d2bf4-f695-4913-a034-aa9277611101-km-712.8025851262547-in_0_0" index="0" allow="rail rail_electric" speed="110.00" length="0.10" shape="6586.00,6339.29 6586.00,6339.29"/>
    </edge>
    <edge id=":039d2bf4-f695-4913-a034-aa9277611101-km-712.8025851262547-in_1" function="internal" bidi=":039d2bf4-f695-4913-a034-aa9277611101-km-712.8025851262547-in_0">
        <lane id=":039d2bf4-f695-4913-a034-aa9277611101-km-712.8025851262547-in_1_0" index="0" allow="rail rail_electric" speed="110.00" length="0.10" shape="6586.00,6339.29 6586.00,6339.29"/>
    </edge>
    <edge id=":043a60b3-aa1e-456d-a37d-74b8e8c74cea-km-1-gegen_0" function="internal" bidi=":043a60b3-aa1e-456d-a37d-74b8e8c74cea-km-1-gegen_1">
        <lane id=":043a60b3-aa1e-456d-a37d-74b8e8c74cea-km-1-gegen_0_0" index="0" allow="rail rail_electric" speed="3.96" length="2.60" shape="9242.58,4609.95 9242.47,4609.57 9242.99,4609.39 9243.81,4609.26 9244.60,4609.02"/>
    </edge>
    <edge id=":043a60b3-aa1e-456d-a37d-74b8e8c74cea-km-1-gegen_1" function="internal" bidi=":043a60b3-aa1e-456d-a37d-74b8e8c74cea-km-1-gegen_0">
        <lane id=":043a60b3-aa1e-456d-a37d-74b8e8c74cea-km-1-gegen_1_0" index="0" allow="rail rail_electric" speed="3.96" length="2.60" shape="9244.60,4609.02 9243.81,4609.26 9242.99,4609.39 9242.47,4609.57 9242.58,4609.95"/>
    </edge>
    <edge id=":043a60b3-aa1e-456d-a37d-74b8e8c74cea-km-1-in_0" function="internal" bidi=":043a60b3-aa1e-456d-a37d-74b8e8c74cea-km-1-in_1">
        <lane id=":043a60b3-aa1e-456d-a37d-74b8e8c74cea-km-1-in_0_0" index="0" allow="rail rail_electric" speed="3.52" length="1.85" shape="9242.72,4610.09 9242.82,4610.37 9242.47,4610.47 9241.90,4610.54 9241.31,4610.71"/>
    </edge>
    <edge id=":043a60b3-aa1e-456d-a37d-74b8e8c74cea-km-1-in_1" function="internal" bidi=":043a60b3-aa1e-456d-a37d-74b8e8c74cea-km-1-in_0">
        <lane id=":043a60b3-aa1e-456d-a37d-74b8e8c74cea-km-1-in_1_0" index="0" allow="rail rail_electric" speed="3.52" length="1.85" shape="9241.31,4610.71 9241.90,4610.54 9242.47,4610.47 9242.82,4610.37 9242.72,4610.09"/>
    </edge>
    <edge id=":043a60b3-aa1e-456d-a37d-74b8e8c74cea-km-1956.2630843989714-in_0" function="internal" bidi=":043a60b3-aa1e-456d-a37d-74b8e8c74cea-km-1956.2630843989714-in_1">
        <lane id=":043a60b3-aa1e-456d-a37d-74b8e8c74cea-km-1956.2630843989714-in_0_0" index="0" allow="rail rail_electric" speed="110.00" length="0.10" shape="10719.50,3365.03 10719.50,3365.03"/>
    </edge>
    <edge id=":043a60b3-aa1e-456d-a37d-74b8e8c74cea-km-1956.2630843989714-in_1" function="internal" bidi=":043a60b3-aa1e-456d-a37d-74b8e8c74cea-km-1956.2630843989714-in_0">
        <lane id=":043a60b3-aa1e-456d-a37d-74b8e8c74cea-km-1956.2630843989714-in_1_0" index="0" allow="rail rail_electric" speed="110.00" length="0.10" shape="10719.50,3365.03 10719.50,3365.03"/>
    </edge>
    <edge id=":04c5d45d-2b65-4756-9d28-49288cf6398b-km-25-gegen_0" function="internal" bidi=":04c5d45d-2b65-4756-9d28-49288cf6398b-km-25-gegen_1">
        <lane id=":04c5d45d-2b65-4756-9d28-49288cf6398b-km-25-gegen_0_0" index="0" allow="rail rail_electric" speed="110.00" length="0.10" shape="9116.17,6568.15 9116.17,6568.15"/>
    </edge>
    <edge id=":04c5d45d-2b65-4756-9d28-49288cf6398b-km-25-gegen_1" function="internal" bidi=":04c5d45d-2b65-4756-9d28-49288cf6398b-km-25-gegen_0">
        <lane id=":04c5d45d-2b65-4756-9d28-49288cf6398b-km-25-gegen_1_0" index="0" allow="rail rail_electric" speed="110.00" length="0.10" shape="9116.17,6568.15 9116.17,6568.15"/>
    </edge>
    <edge id=":04c5d45d-2b65-4756-9d28-49288cf6398b-km-87.85823641296123-in_0" function="internal" bidi=":04c5d45d-2b65-4756-9d28-49288cf6398b-km-87.85823641296123-in_1">
        <lane id=":04c5d45d-2b65-4756-9d28-49288cf6398b-km-87.85823641296123-in_0_0" index="0" allow="rail rail_electric" speed="110.00" length="0.10" shape="9124.50,6505.84 9124.50,6505.84"/>
    </edge>
    <edge id=":04c5d45d-2b65-4756-9d28-49288cf6398b-km-87.85823641296123-in_1" function="internal" bidi=":04c5d45d-2b65-4756-9d28-49288cf6398b-km-87.85823641296123-in_0">
        <lane id=":04c5d45d-2b65-4756-9d28-49288cf6398b-km-87.85823641296123-in_1_0" index="0" allow="rail rail_electric" speed="110.00" length="0.10" shape="9124.50,6505.84 9124.50,6505.84"/>
    </edge>
    <edge id=":04f1854c-d2a8-43cb-ad6c-bab2d5093910-km-1000-gegen_0" function="internal" bidi=":04f1854c-d2a8-43cb-ad6c-bab2d5093910-km-1000-gegen_1">
        <lane id=":04f1854c-d2a8-43cb-ad6c-bab2d5093910-km-1000-gegen_0_0" index="0" allow="rail rail_electric" speed="110.00" length="0.88" shape="6464.11,5839.28 6463.92,5839.19 6463.77,5839.27 6463.59,5839.41 6463.34,5839.52"/>
    </edge>
    <edge id=":04f1854c-d2a8-43cb-ad6c-bab2d5093910-km-1000-gegen_1" function="internal" bidi=":04f1854c-d2a8-43cb-ad6c-bab2d5093910-km-1000-gegen_0">
        <lane id=":04f1854c-d2a8-43cb-ad6c-bab2d5093910-km-1000-gegen_1_0" index="0" allow="rail rail_electric" speed="110.00" length="0.88" shape="6463.34,5839.52 6463.59,5839.41 6463.77,5839.27 6463.92,5839.19 6464.11,5839.28"/>
    </edge>
    <edge id=":04f1854c-d2a8-43cb-ad6c-bab2d5093910-km-1000-in_0" function="internal" bidi=":04f1854c-d2a8-43cb-ad6c-bab2d5093910-km-1000-in_1">
        <lane id=":04f1854c-d2a8-43cb-ad6c-bab2d5093910-km-1000-in_0_0" index="0" allow="rail rail_electric" speed="110.00" length="0.88" shape="6465.02,5839.19 6464.77,5839.30 6464.59,5839.44 6464.43,5839.52 6464.25,5839.43"/>
    </edge>
    <edge id=":04f1854c-d2a8-43cb-ad6c-bab2d5093910-km-1000-in_1" function="internal" bidi=":04f1854c-d2a8-43cb-ad6c-bab2d5093910-km-1000-in_0">
        <lane id=":04f1854c-d2a8-43cb-ad6c-bab2d5093910-km-1000-in_1_0" index="0" allow="rail rail_electric" speed="110.00" length="0.88" shape="6464.25,5839.43 6464.43,5839.52 6464.59,5839.44 6464.77,5839.30 6465.02,5839.19"/>
    </edge>
    <edge id=":04f1854c-d2a8-43cb-ad6c-bab2d5093910-km-25-gegen_0" function="internal" bidi=":04f1854c-d2a8-43cb-ad6c-bab2d5093910-km-25-gegen_1">
        <lane id=":04f1854c-d2a8-43cb-ad6c-bab2d5093910-km-25-gegen_0_0" index="0" allow="rail rail_electric" speed="110.00" length="0.10" shape="7420.19,5647.86 7420.19,5647.86"/>
    </edge>
    <edge id=":04f1854c-d2a8-43cb-ad6c-bab2d5093910-km-25-gegen_1" function="internal" bidi=":04f1854c-d2a8-43cb-ad6c-bab2d5093910-km-25-gegen_0">
        <lane id=":04f1854c-d2a8-43cb-ad6c-bab2d5093910-km-25-gegen_1_0" index="0" allow="rail rail_electric" speed="110.00" length="0.10" shape="7420.19,5647.86 7420.19,5647.86"/>
    </edge>
    <edge id=":055edadc-1b54-4cfb-b6a2-5645bb77367e-km-162.67148563348158-in_0" function="internal" bidi=":055edadc-1b54-4cfb-b6a2-5645bb77367e-km-162.67148563348158-in_1">
        <lane id=":055edadc-1b54-4cfb-b6a2-5645bb77367e-km-162.67148563348158-in_0_0" index="0" allow="rail rail_electric" speed="110.00" length="0.10" shape="12215.43,710.30 12215.43,710.30"/>
    </edge>
    <edge id=":055edadc-1b54-4cfb-b6a2-5645bb77367e-km-162.67148563348158-in_1" function="internal" bidi=":055edadc-1b54-4cfb-b6a2-5645bb77367e-km-162.67148563348158-in_0">
        <lane id=":055edadc-1b54-4cfb-b6a2-5645bb77367e-km-162.67148563348158-in_1_0" index="0" allow="rail rail_electric" speed="110.00" length="0.10" shape="12215.43,710.30 12215.43,710.30"/>
    </edge>
    <edge id=":055edadc-1b54-4cfb-b6a2-5645bb77367e-km-25-gegen_0" function="internal" bidi=":055edadc-1b54-4cfb-b6a2-5645bb77367e-km-25-gegen_1">
        <lane id=":055edadc-1b54-4cfb-b6a2-5645bb77367e-km-25-gegen_0_0" index="0" allow="rail rail_electric" speed="110.00" length="0.10" shape="12281.02,589.25 12281.02,589.25"/>
    </edge>
    <edge id=":055edadc-1b54-4cfb-b6a2-5645bb77367e-km-25-gegen_1" function="internal" bidi=":055edadc-1b54-4cfb-b6a2-5645bb77367e-km-25-gegen_0">
        <lane id=":055edadc-1b54-4cfb-b6a2-5645bb77367e-km-25-gegen_1_0" index="0" allow="rail rail_electric" speed="110.00" length="0.10" shape="12281.02,589.25 12281.02,589.25"/>
    </edge>
    <edge id=":05b436ee-4861-4333-8c7e-3b4ff3cd3ca7-km-1477.4375600646993-in_0" function="internal" bidi=":05b436ee-4861-4333-8c7e-3b4ff3cd3ca7-km-1477.4375600646993-in_1">
        <lane id=":05b436ee-4861-4333-8c7e-3b4ff3cd3ca7-km-1477.4375600646993-in_0_0" index="0" allow="rail rail_electric" speed="110.00" length="0.10" shape="6161.15,5876.28 6161.15,5876.28"/>
    </edge>
    <edge id=":05b436ee-4861-4333-8c7e-3b4ff3cd3ca7-km-1477.4375600646993-in_1" function="internal" bidi=":05b436ee-4861-4333-8c7e-3b4ff3cd3ca7-km-1477.4375600646993-in_0">
        <lane id=":05b436ee-4861-4333-8c7e-3b4ff3cd3ca7-km-1477.4375600646993-in_1_0" index="0" allow="rail rail_electric" speed="110.00" length="0.10" shape="6161.15,5876.28 6161.15,5876.28"/>
    </edge>
    <edge id=":05b436ee-4861-4333-8c7e-3b4ff3cd3ca7-km-25-gegen_0" function="internal" bidi=":05b436ee-4861-4333-8c7e-3b4ff3cd3ca7-km-25-gegen_1">
        <lane id=":05b436ee-4861-4333-8c7e-3b4ff3cd3ca7-km-25-gegen_0_0" index="0" allow="rail rail_electric" speed="110.00" length="0.10" shape="7585.36,5591.32 7585.36,5591.32"/>
    </edge>
    <edge id=":05b436ee-4861-4333-8c7e-3b4ff3cd3ca7-km-25-gegen_1" function="internal" bidi=":05b436ee-4861-4333-8c7e-3b4ff3cd3ca7-km-25-gegen_0">
        <lane id=":05b436ee-4861-4333-8c7e-3b4ff3cd3ca7-km-25-gegen_1_0" index="0" allow="rail rail_electric" speed="110.00" length="0.10" shape="7585.36,5591.32 7585.36,5591.32"/>
    </edge>
    <edge id=":05de992b-4cac-4640-aead-45db7b9a1c10-km-25-gegen_0" function="internal" bidi=":05de992b-4cac-4640-aead-45db7b9a1c10-km-25-gegen_1">
        <lane id=":05de992b-4cac-4640-aead-45db7b9a1c10-km-25-gegen_0_0" index="0" allow="rail rail_electric" speed="110.00" length="0.10" shape="4033.20,7311.66 4033.20,7311.66"/>
    </edge>
    <edge id=":05de992b-4cac-4640-aead-45db7b9a1c10-km-25-gegen_1" function="internal" bidi=":05de992b-4cac-4640-aead-45db7b9a1c10-km-25-gegen_0">
        <lane id=":05de992b-4cac-4640-aead-45db7b9a1c10-km-25-gegen_1_0" index="0" allow="rail rail_electric" speed="110.00" length="0.10" shape="4033.20,7311.66 4033.20,7311.66"/>
    </edge>
    <edge id=":05de992b-4cac-4640-aead-45db7b9a1c10-km-399.4097444607108-in_0" function="internal" bidi=":05de992b-4cac-4640-aead-45db7b9a1c10-km-399.4097444607108-in_1">
        <lane id=":05de992b-4cac-4640-aead-45db7b9a1c10-km-399.4097444607108-in_0_0" index="0" allow="rail rail_electric" speed="110.00" length="0.10" shape="4152.18,7657.11 4152.18,7657.11"/>
    </edge>
    <edge id=":05de992b-4cac-4640-aead-45db7b9a1c10-km-399.4097444607108-in_1" function="internal" bidi=":05de992b-4cac-4640-aead-45db7b9a1c10-km-399.4097444607108-in_0">
        <lane id=":05de992b-4cac-4640-aead-45db7b9a1c10-km-399.4097444607108-in_1_0" index="0" allow="rail rail_electric" speed="110.00" length="0.10" shape="4152.18,7657.11 4152.18,7657.11"/>
    </edge>
    <edge id=":05e6ece5-98cf-44d2-a32d-8076bd0e87ee-km-1000-gegen_0" function="internal" bidi=":05e6ece5-98cf-44d2-a32d-8076bd0e87ee-km-1000-gegen_1">
        <lane id=":05e6ece5-98cf-44d2-a32d-8076bd0e87ee-km-1000-gegen_0_0" index="0" allow="rail rail_electric" speed="110.00" length="0.87" shape="7645.75,5788.48 7645.57,5788.38 7645.41,5788.46 7645.24,5788.60 7644.99,5788.71"/>
    </edge>
    <edge id=":05e6ece5-98cf-44d2-a32d-8076bd0e87ee-km-1000-gegen_1" function="internal" bidi=":05e6ece5-98cf-44d2-a32d-8076bd0e87ee-km-1000-gegen_0">
        <lane id=":05e6ece5-98cf-44d2-a32d-8076bd0e87ee-km-1000-gegen_1_0" index="0" allow="rail rail_electric" speed="110.00" length="0.87" shape="7644.99,5788.71 7645.24,5788.60 7645.41,5788.46 7645.57,5788.38 7645.75,5788.48"/>
    </edge>
    <edge id=":05e6ece5-98cf-44d2-a32d-8076bd0e87ee-km-1000-in_0" function="internal" bidi=":05e6ece5-98cf-44d2-a32d-8076bd0e87ee-km-1000-in_1">
        <lane id=":05e6ece5-98cf-44d2-a32d-8076bd0e87ee-km-1000-in_0_0" index="0" allow="rail rail_electric" speed="110.00" length="0.87" shape="7646.66,5788.39 7646.41,5788.49 7646.23,5788.64 7646.08,5788.71 7645.89,5788.62"/>
    </edge>
    <edge id=":05e6ece5-98cf-44d2-a32d-8076bd0e87ee-km-1000-in_1" function="internal" bidi=":05e6ece5-98cf-44d2-a32d-8076bd0e87ee-km-1000-in_0">
        <lane id=":05e6ece5-98cf-44d2-a32d-8076bd0e87ee-km-1000-in_1_0" index="0" allow="rail rail_electric" speed="110.00" length="0.87" shape="7645.89,5788.62 7646.08,5788.71 7646.23,5788.64 7646.41,5788.49 7646.66,5788.39"/>
    </edge>
    <edge id=":05e6ece5-98cf-44d2-a32d-8076bd0e87ee-km-25-gegen_0" function="internal" bidi=":05e6ece5-98cf-44d2-a32d-8076bd0e87ee-km-25-gegen_1">
        <lane id=":05e6ece5-98cf-44d2-a32d-8076bd0e87ee-km-25-gegen_0_0" index="0" allow="rail rail_electric" speed="110.00" length="0.10" shape="8605.68,5798.84 8605.68,5798.84"/>
    </edge>
    <edge id=":05e6ece5-98cf-44d2-a32d-8076bd0e87ee-km-25-gegen_1" function="internal" bidi=":05e6ece5-98cf-44d2-a32d-8076bd0e87ee-km-25-gegen_0">
        <lane id=":05e6ece5-98cf-44d2-a32d-8076bd0e87ee-km-25-gegen_1_0" index="0" allow="rail rail_electric" speed="110.00" length="0.10" shape="8605.68,5798.84 8605.68,5798.84"/>
    </edge>
    <edge id=":06a08_0" function="internal" bidi=":06a08_3">
        <lane id=":06a08_0_0" index="0" allow="rail rail_electric" speed="110.00" length="3.02" shape="4031.55,7493.66 4030.75,7490.74"/>
    </edge>
    <edge id=":06a08_1" function="internal" bidi=":06a08_2">
        <lane id=":06a08_1_0" index="0" allow="rail rail_electric" speed="110.00" length="3.03" shape="4031.55,7493.66 4030.90,7490.70"/>
    </edge>
    <edge id=":06a08_2" function="internal" bidi=":06a08_1">
        <lane id=":06a08_2_0" index="0" allow="rail rail_electric" speed="110.00" length="3.03" shape="4030.90,7490.70 4031.55,7493.66"/>
    </edge>
    <edge id=":06a08_3" function="internal" bidi=":06a08_0">
        <lane id=":06a08_3_0" index="0" allow="rail rail_electric" speed="110.00" length="3.02" shape="4030.75,7490.74 4031.55,7493.66"/>
    </edge>
    <edge id=":072e6_0" function="internal">
        <lane id=":072e6_0_0" index="0" allow="rail rail_electric" speed="0.10" length="0.10" shape="4040.61,6912.82 4040.61,6912.82"/>
    </edge>
    <edge id=":077e2_0" function="internal">
        <lane id=":077e2_0_0" index="0" allow="rail rail_electric" speed="0.10" length="0.10" shape="6510.73,5841.75 6510.73,5841.75"/>
    </edge>
    <edge id=":087c4_0" function="internal">
        <lane id=":087c4_0_0" index="0" allow="rail rail_electric" speed="0.10" length="0.10" shape="6440.38,8192.20 6440.38,8192.20"/>
    </edge>
    <edge id=":08a45565-cf4a-4980-bae5-b8b88efe92cb-km-635.605468926308-in_0" function="internal" bidi=":08a45565-cf4a-4980-bae5-b8b88efe92cb-km-635.605468926308-in_1">
        <lane id=":08a45565-cf4a-4980-bae5-b8b88efe92cb-km-635.605468926308-in_0_0" index="0" allow="rail rail_electric" speed="110.00" length="0.10" shape="7073.08,5817.63 7073.08,5817.63"/>
    </edge>
    <edge id=":08a45565-cf4a-4980-bae5-b8b88efe92cb-km-635.605468926308-in_1" function="internal" bidi=":08a45565-cf4a-4980-bae5-b8b88efe92cb-km-635.605468926308-in_0">
        <lane id=":08a45565-cf4a-4980-bae5-b8b88efe92cb-km-635.605468926308-in_1_0" index="0" allow="rail rail_electric" speed="110.00" length="0.10" shape="7073.08,5817.63 7073.08,5817.63"/>
    </edge>
    <edge id=":08bb0881-fbe8-4c58-a599-178c9804a20c-km-25-gegen_0" function="internal" bidi=":08bb0881-fbe8-4c58-a599-178c9804a20c-km-25-gegen_1">
        <lane id=":08bb0881-fbe8-4c58-a599-178c9804a20c-km-25-gegen_0_0" index="0" allow="rail rail_electric" speed="110.00" length="0.10" shape="5134.69,7848.47 5134.69,7848.47"/>
    </edge>
    <edge id=":08bb0881-fbe8-4c58-a599-178c9804a20c-km-25-gegen_1" function="internal" bidi=":08bb0881-fbe8-4c58-a599-178c9804a20c-km-25-gegen_0">
        <lane id=":08bb0881-fbe8-4c58-a599-178c9804a20c-km-25-gegen_1_0" index="0" allow="rail rail_electric" speed="110.00" length="0.10" shape="5134.69,7848.47 5134.69,7848.47"/>
    </edge>
    <edge id=":095f4_0" function="internal">
        <lane id=":095f4_0_0" index="0" allow="rail rail_electric" speed="0.10" length="0.10" shape="6451.65,5944.90 6451.65,5944.90"/>
    </edge>
    <edge id=":09c50_0" function="internal" bidi=":09c50_3">
        <lane id=":09c50_0_0" index="0" allow="rail rail_electric" speed="110.00" length="2.78" shape="6990.57,7873.51 6989.74,7873.43 6989.18,7873.38 6988.61,7873.36 6987.79,7873.35"/>
    </edge>
    <edge id=":09c50_1" function="internal" bidi=":09c50_2">
        <lane id=":09c50_1_0" index="0" allow="rail rail_electric" speed="110.00" length="2.79" shape="6990.57,7873.51 6987.79,7873.26"/>
    </edge>
    <edge id=":09c50_2" function="internal" bidi=":09c50_1">
        <lane id=":09c50_2_0" index="0" allow="rail rail_electric" speed="110.00" length="2.79" shape="6987.79,7873.26 6990.57,7873.51"/>
    </edge>
    <edge id=":09c50_3" function="internal" bidi=":09c50_0">
        <lane id=":09c50_3_0" index="0" allow="rail rail_electric" speed="110.00" length="2.78" shape="6987.79,7873.35 6988.61,7873.36 6989.18,7873.38 6989.74,7873.43 6990.57,7873.51"/>
    </edge>
    <edge id=":0aaa9d12-c53e-43d0-adc8-9826104bf809-km-1856.9920470157094-in_0" function="internal" bidi=":0aaa9d12-c53e-43d0-adc8-9826104bf809-km-1856.9920470157094-in_1">
        <lane id=":0aaa9d12-c53e-43d0-adc8-9826104bf809-km-1856.9920470157094-in_0_0" index="0" allow="rail rail_electric" speed="110.00" length="0.10" shape="5672.57,8104.87 5672.57,8104.87"/>
    </edge>
    <edge id=":0aaa9d12-c53e-43d0-adc8-9826104bf809-km-1856.9920470157094-in_1" function="internal" bidi=":0aaa9d12-c53e-43d0-adc8-9826104bf809-km-1856.9920470157094-in_0">
        <lane id=":0aaa9d12-c53e-43d0-adc8-9826104bf809-km-1856.9920470157094-in_1_0" index="0" allow="rail rail_electric" speed="110.00" length="0.10" shape="5672.57,8104.87 5672.57,8104.87"/>
    </edge>
    <edge id=":0aaa9d12-c53e-43d0-adc8-9826104bf809-km-25-gegen_0" function="internal" bidi=":0aaa9d12-c53e-43d0-adc8-9826104bf809-km-25-gegen_1">
        <lane id=":0aaa9d12-c53e-43d0-adc8-9826104bf809-km-25-gegen_0_0" index="0" allow="rail rail_electric" speed="110.00" length="0.10" shape="7476.39,7941.10 7476.39,7941.10"/>
    </edge>
    <edge id=":0aaa9d12-c53e-43d0-adc8-9826104bf809-km-25-gegen_1" function="internal" bidi=":0aaa9d12-c53e-43d0-adc8-9826104bf809-km-25-gegen_0">
        <lane id=":0aaa9d12-c53e-43d0-adc8-9826104bf809-km-25-gegen_1_0" index="0" allow="rail rail_electric" speed="110.00" length="0.10" shape="7476.39,7941.10 7476.39,7941.10"/>
    </edge>
    <edge id=":0ac9f_0" function="internal" bidi=":0ac9f_3">
        <lane id=":0ac9f_0_0" index="0" allow="rail rail_electric" speed="110.00" length="3.01" shape="9095.52,6686.22 9095.20,6689.22"/>
    </edge>
    <edge id=":0ac9f_1" function="internal" bidi=":0ac9f_2">
        <lane id=":0ac9f_1_0" index="0" allow="rail rail_electric" speed="110.00" length="3.01" shape="9095.40,6686.22 9095.20,6689.22"/>
    </edge>
    <edge id=":0ac9f_2" function="internal" bidi=":0ac9f_1">
        <lane id=":0ac9f_2_0" index="0" allow="rail rail_electric" speed="110.00" length="3.01" shape="9095.20,6689.22 9095.40,6686.22"/>
    </edge>
    <edge id=":0ac9f_3" function="internal" bidi=":0ac9f_0">
        <lane id=":0ac9f_3_0" index="0" allow="rail rail_electric" speed="110.00" length="3.01" shape="9095.20,6689.22 9095.52,6686.22"/>
    </edge>
    <edge id=":0b1d3_0" function="internal" bidi=":0b1d3_3">
        <lane id=":0b1d3_0_0" index="0" allow="rail rail_electric" speed="110.00" length="24.79" shape="8957.64,5827.89 8955.64,5803.18"/>
    </edge>
    <edge id=":0b1d3_1" function="internal" bidi=":0b1d3_2">
        <lane id=":0b1d3_1_0" index="0" allow="rail rail_electric" speed="110.00" length="24.78" shape="8961.01,5827.37 8959.75,5822.24 8958.05,5815.32 8956.48,5808.38 8955.64,5803.18"/>
    </edge>
    <edge id=":0b1d3_2" function="internal" bidi=":0b1d3_1">
        <lane id=":0b1d3_2_0" index="0" allow="rail rail_electric" speed="110.00" length="24.78" shape="8955.64,5803.18 8956.48,5808.38 8958.05,5815.32 8959.75,5822.24 8961.01,5827.37"/>
    </edge>