<?xml version="1.0" encoding="UTF-8"?>

<!-- generated on 2023-06-13 11:29:07 by Eclipse SUMO netconvert Version v1_17_0+0919-6a4cbcaacb7
<configuration xmlns:xsi="http://www.w3.org/2001/XMLSchema-instance" xsi:noNamespaceSchemaLocation="http://sumo.dlr.de/xsd/netconvertConfiguration.xsd">

    <input>
        <node-files value="sumo-config/schwarze_pumpe_v1.nod.xml"/>
        <edge-files value="sumo-config/schwarze_pumpe_v1.edg.xml"/>
        <connection-files value="sumo-config/schwarze_pumpe_v1.con.xml"/>
    </input>

    <output>
        <output-file value="sumo-config/schwarze_pumpe_v1.net.xml"/>
    </output>

    <junctions>
        <no-internal-links value="true"/>
        <junctions.minimal-shape value="true"/>
    </junctions>

    <railway>
        <railway.topology.repair value="true"/>
        <railway.topology.repair.connect-straight value="true"/>
        <railway.topology.all-bidi value="false"/>
    </railway>

</configuration>
-->

<net version="1.16" junctionCornerDetail="5" limitTurnSpeed="5.50" xmlns:xsi="http://www.w3.org/2001/XMLSchema-instance" xsi:noNamespaceSchemaLocation="http://sumo.dlr.de/xsd/net_file.xsd">

    <location netOffset="2506174.81,-3459405.32" convBoundary="0.00,0.00,12719.19,11737.42" origBoundary="-2506174.81,3459405.32,-2493455.62,3471142.74" projParameter="!"/>

    <edge id="00018-0" from="56574" to="d2a6aab2-53b8-42ab-afb7-9826d1c00018-km-25-gegen" priority="-1" spreadType="center" bidi="00018-0-re">
        <lane id="00018-0_0" index="0" allow="rail rail_electric" speed="110.00" length="25.00" shape="9782.33,5003.84 9798.05,4984.40"/>
    </edge>
    <edge id="00018-0-re" from="d2a6aab2-53b8-42ab-afb7-9826d1c00018-km-25-gegen" to="56574" priority="-1" spreadType="center" bidi="00018-0">
        <lane id="00018-0-re_0" index="0" allow="rail rail_electric" speed="110.00" length="25.00" shape="9798.05,4984.40 9782.33,5003.84"/>
    </edge>
    <edge id="00018-1" from="d2a6aab2-53b8-42ab-afb7-9826d1c00018-km-25-gegen" to="d2a6aab2-53b8-42ab-afb7-9826d1c00018-km-350.00928348009427-in" priority="-1" spreadType="center" shape="9798.05,4984.40 9867.34,4898.66 9964.29,4728.75 9973.21,4711.81" bidi="00018-1-re">
        <lane id="00018-1_0" index="0" allow="rail rail_electric" speed="110.00" length="325.01" shape="9798.05,4984.40 9867.34,4898.66 9964.29,4728.75 9973.21,4711.81"/>
    </edge>
    <edge id="00018-1-re" from="d2a6aab2-53b8-42ab-afb7-9826d1c00018-km-350.00928348009427-in" to="d2a6aab2-53b8-42ab-afb7-9826d1c00018-km-25-gegen" priority="-1" spreadType="center" shape="9973.21,4711.81 9964.29,4728.75 9867.34,4898.66 9798.05,4984.40" bidi="00018-1">
        <lane id="00018-1-re_0" index="0" allow="rail rail_electric" speed="110.00" length="325.01" shape="9973.21,4711.81 9964.29,4728.75 9867.34,4898.66 9798.05,4984.40"/>
    </edge>
    <edge id="00018-2" from="d2a6aab2-53b8-42ab-afb7-9826d1c00018-km-350.00928348009427-in" to="d32fd" priority="-1" spreadType="center" bidi="00018-2-re">
        <lane id="00018-2_0" index="0" allow="rail rail_electric" speed="110.00" length="25.00" shape="9973.21,4711.81 9984.87,4689.69"/>
    </edge>
    <edge id="00018-2-re" from="d32fd" to="d2a6aab2-53b8-42ab-afb7-9826d1c00018-km-350.00928348009427-in" priority="-1" spreadType="center" bidi="00018-2">
        <lane id="00018-2-re_0" index="0" allow="rail rail_electric" speed="110.00" length="25.00" shape="9984.87,4689.69 9973.21,4711.81"/>
    </edge>
    <edge id="01bfe-0" from="8d04e" to="897cce6d-837f-4e34-b524-bb4f05601bfe-km-25-gegen" priority="-1" spreadType="center" bidi="01bfe-0-re">
        <lane id="01bfe-0_0" index="0" allow="rail rail_electric" speed="110.00" length="25.00" shape="9803.73,2809.84 9812.86,2786.57"/>
    </edge>
    <edge id="01bfe-0-re" from="897cce6d-837f-4e34-b524-bb4f05601bfe-km-25-gegen" to="8d04e" priority="-1" spreadType="center" bidi="01bfe-0">
        <lane id="01bfe-0-re_0" index="0" allow="rail rail_electric" speed="110.00" length="25.00" shape="9812.86,2786.57 9803.73,2809.84"/>
    </edge>
    <edge id="01bfe-1" from="897cce6d-837f-4e34-b524-bb4f05601bfe-km-25-gegen" to="897cce6d-837f-4e34-b524-bb4f05601bfe-km-86.42029216853058-in" priority="-1" spreadType="center" shape="9812.86,2786.57 9827.58,2749.05 9835.19,2729.35" bidi="01bfe-1-re">
        <lane id="01bfe-1_0" index="0" allow="rail rail_electric" speed="110.00" length="61.42" shape="9812.86,2786.57 9827.58,2749.05 9835.19,2729.35"/>
    </edge>
    <edge id="01bfe-1-re" from="897cce6d-837f-4e34-b524-bb4f05601bfe-km-86.42029216853058-in" to="897cce6d-837f-4e34-b524-bb4f05601bfe-km-25-gegen" priority="-1" spreadType="center" shape="9835.19,2729.35 9827.58,2749.05 9812.86,2786.57" bidi="01bfe-1">
        <lane id="01bfe-1-re_0" index="0" allow="rail rail_electric" speed="110.00" length="61.42" shape="9835.19,2729.35 9827.58,2749.05 9812.86,2786.57"/>
    </edge>
    <edge id="01bfe-2" from="897cce6d-837f-4e34-b524-bb4f05601bfe-km-86.42029216853058-in" to="70265" priority="-1" spreadType="center" bidi="01bfe-2-re">
        <lane id="01bfe-2_0" index="0" allow="rail rail_electric" speed="110.00" length="25.00" shape="9835.19,2729.35 9844.21,2706.04"/>
    </edge>
    <edge id="01bfe-2-re" from="70265" to="897cce6d-837f-4e34-b524-bb4f05601bfe-km-86.42029216853058-in" priority="-1" spreadType="center" bidi="01bfe-2">
        <lane id="01bfe-2-re_0" index="0" allow="rail rail_electric" speed="110.00" length="25.00" shape="9844.21,2706.04 9835.19,2729.35"/>
    </edge>
    <edge id="02603-0" from="20209" to="db2cf" priority="-1" spreadType="center" bidi="02603-0-re">
        <lane id="02603-0_0" index="0" allow="rail rail_electric" speed="110.00" length="29.37" shape="7700.79,7891.05 7671.93,7896.52"/>
    </edge>
    <edge id="02603-0-re" from="db2cf" to="20209" priority="-1" spreadType="center" bidi="02603-0">
        <lane id="02603-0-re_0" index="0" allow="rail rail_electric" speed="110.00" length="29.37" shape="7671.93,7896.52 7700.79,7891.05"/>
    </edge>
    <edge id="0299e-0" from="35499" to="faadd" priority="-1" spreadType="center" bidi="0299e-0-re">
        <lane id="0299e-0_0" index="0" allow="rail rail_electric" speed="110.00" length="43.49" shape="9052.28,5614.90 9082.37,5583.71"/>
    </edge>
    <edge id="0299e-0-re" from="faadd" to="35499" priority="-1" spreadType="center" bidi="0299e-0">
        <lane id="0299e-0-re_0" index="0" allow="rail rail_electric" speed="110.00" length="43.49" shape="9082.37,5583.71 9052.28,5614.90"/>
    </edge>
    <edge id="02d63-0" from="b31c4" to="8c3ab" priority="-1" spreadType="center" bidi="02d63-0-re">
        <lane id="02d63-0_0" index="0" allow="rail rail_electric" speed="110.00" length="58.05" shape="8968.90,5861.35 8955.79,5804.91"/>
    </edge>
    <edge id="02d63-0-re" from="8c3ab" to="b31c4" priority="-1" spreadType="center" bidi="02d63-0">
        <lane id="02d63-0-re_0" index="0" allow="rail rail_electric" speed="110.00" length="58.05" shape="8955.79,5804.91 8968.90,5861.35"/>
    </edge>
    <edge id="03a0a-0" from="6b9e1" to="5d54f" priority="-1" spreadType="center" bidi="03a0a-0-re">
        <lane id="03a0a-0_0" index="0" allow="rail rail_electric" speed="110.00" length="69.98" shape="9130.57,6403.59 9145.23,6335.32"/>
    </edge>
    <edge id="03a0a-0-re" from="5d54f" to="6b9e1" priority="-1" spreadType="center" bidi="03a0a-0">
        <lane id="03a0a-0-re_0" index="0" allow="rail rail_electric" speed="110.00" length="69.98" shape="9145.23,6335.32 9130.57,6403.59"/>
    </edge>
    <edge id="03c05-0" from="05cae" to="4755d0bd-5e1d-4604-bb25-d65ad1003c05-km-25-gegen" priority="-1" spreadType="center" bidi="03c05-0-re">
        <lane id="03c05-0_0" index="0" allow="rail rail_electric" speed="110.00" length="25.00" shape="9137.92,5771.29 9137.21,5796.17"/>
    </edge>
    <edge id="03c05-0-re" from="4755d0bd-5e1d-4604-bb25-d65ad1003c05-km-25-gegen" to="05cae" priority="-1" spreadType="center" bidi="03c05-0">
        <lane id="03c05-0-re_0" index="0" allow="rail rail_electric" speed="110.00" length="25.00" shape="9137.21,5796.17 9137.92,5771.29"/>
    </edge>
    <edge id="03c05-1" from="4755d0bd-5e1d-4604-bb25-d65ad1003c05-km-25-gegen" to="4755d0bd-5e1d-4604-bb25-d65ad1003c05-km-893.3775715190525-in" priority="-1" spreadType="center" shape="9137.21,5796.17 9124.98,6226.05 9118.95,6404.19 9118.26,6463.54 9113.91,6507.44 9103.66,6559.12 9096.92,6662.83" bidi="03c05-1-re">
        <lane id="03c05-1_0" index="0" allow="rail rail_electric" speed="110.00" length="868.38" shape="9137.21,5796.17 9124.98,6226.05 9118.95,6404.19 9118.26,6463.54 9113.91,6507.44 9103.66,6559.12 9096.92,6662.83"/>
    </edge>
    <edge id="03c05-1-re" from="4755d0bd-5e1d-4604-bb25-d65ad1003c05-km-893.3775715190525-in" to="4755d0bd-5e1d-4604-bb25-d65ad1003c05-km-25-gegen" priority="-1" spreadType="center" shape="9096.92,6662.83 9103.66,6559.12 9113.91,6507.44 9118.26,6463.54 9118.95,6404.19 9124.98,6226.05 9137.21,5796.17" bidi="03c05-1">
        <lane id="03c05-1-re_0" index="0" allow="rail rail_electric" speed="110.00" length="868.38" shape="9096.92,6662.83 9103.66,6559.12 9113.91,6507.44 9118.26,6463.54 9118.95,6404.19 9124.98,6226.05 9137.21,5796.17"/>
    </edge>
    <edge id="03c05-2" from="4755d0bd-5e1d-4604-bb25-d65ad1003c05-km-893.3775715190525-in" to="cae59" priority="-1" spreadType="center" bidi="03c05-2-re">
        <lane id="03c05-2_0" index="0" allow="rail rail_electric" speed="110.00" length="25.00" shape="9096.92,6662.83 9095.30,6687.78"/>
    </edge>
    <edge id="03c05-2-re" from="cae59" to="4755d0bd-5e1d-4604-bb25-d65ad1003c05-km-893.3775715190525-in" priority="-1" spreadType="center" bidi="03c05-2">
        <lane id="03c05-2-re_0" index="0" allow="rail rail_electric" speed="110.00" length="25.00" shape="9095.30,6687.78 9096.92,6662.83"/>
    </edge>
    <edge id="03d01-0" from="9fcc7" to="fa809" priority="-1" spreadType="center" bidi="03d01-0-re">
        <lane id="03d01-0_0" index="0" allow="rail rail_electric" speed="110.00" length="55.32" shape="3802.92,7338.43 3792.57,7284.21"/>
    </edge>
    <edge id="03d01-0-re" from="fa809" to="9fcc7" priority="-1" spreadType="center" bidi="03d01-0">
        <lane id="03d01-0-re_0" index="0" allow="rail rail_electric" speed="110.00" length="55.32" shape="3792.57,7284.21 3802.92,7338.43"/>
    </edge>
    <edge id="052c1-0" from="44a8e" to="e252ee98-fd7b-4c0e-b8ff-dc7b0e6052c1-km-25-gegen" priority="-1" spreadType="center" bidi="052c1-0-re">
        <lane id="052c1-0_0" index="0" allow="rail rail_electric" speed="110.00" length="25.00" shape="1642.68,7729.26 1656.90,7749.82"/>
    </edge>
    <edge id="052c1-0-re" from="e252ee98-fd7b-4c0e-b8ff-dc7b0e6052c1-km-25-gegen" to="44a8e" priority="-1" spreadType="center" bidi="052c1-0">
        <lane id="052c1-0-re_0" index="0" allow="rail rail_electric" speed="110.00" length="25.00" shape="1656.90,7749.82 1642.68,7729.26"/>
    </edge>
    <edge id="052c1-1" from="e252ee98-fd7b-4c0e-b8ff-dc7b0e6052c1-km-25-gegen" to="e252ee98-fd7b-4c0e-b8ff-dc7b0e6052c1-km-127.93993372271524-in" priority="-1" spreadType="center" shape="1656.90,7749.82 1680.84,7784.43 1720.04,7830.98" bidi="052c1-1-re">
        <lane id="052c1-1_0" index="0" allow="rail rail_electric" speed="110.00" length="102.94" shape="1656.90,7749.82 1680.84,7784.43 1720.04,7830.98"/>
    </edge>
    <edge id="052c1-1-re" from="e252ee98-fd7b-4c0e-b8ff-dc7b0e6052c1-km-127.93993372271524-in" to="e252ee98-fd7b-4c0e-b8ff-dc7b0e6052c1-km-25-gegen" priority="-1" spreadType="center" shape="1720.04,7830.98 1680.84,7784.43 1656.90,7749.82" bidi="052c1-1">
        <lane id="052c1-1-re_0" index="0" allow="rail rail_electric" speed="110.00" length="102.94" shape="1720.04,7830.98 1680.84,7784.43 1656.90,7749.82"/>
    </edge>
    <edge id="052c1-2" from="e252ee98-fd7b-4c0e-b8ff-dc7b0e6052c1-km-127.93993372271524-in" to="29f30" priority="-1" spreadType="center" shape="1720.04,7830.98 1724.83,7836.67 1736.16,7850.09" bidi="052c1-2-re">
        <lane id="052c1-2_0" index="0" allow="rail rail_electric" speed="110.00" length="25.00" shape="1720.04,7830.98 1724.83,7836.67 1736.16,7850.09"/>
    </edge>
    <edge id="052c1-2-re" from="29f30" to="e252ee98-fd7b-4c0e-b8ff-dc7b0e6052c1-km-127.93993372271524-in" priority="-1" spreadType="center" shape="1736.16,7850.09 1724.83,7836.67 1720.04,7830.98" bidi="052c1-2">
        <lane id="052c1-2-re_0" index="0" allow="rail rail_electric" speed="110.00" length="25.00" shape="1736.16,7850.09 1724.83,7836.67 1720.04,7830.98"/>
    </edge>
    <edge id="05538-0" from="7065e" to="f5e68401-269f-4467-9f51-6ac4dfe05538-km-25-gegen" priority="-1" spreadType="center" bidi="05538-0-re">
        <lane id="05538-0_0" index="0" allow="rail rail_electric" speed="110.00" length="25.00" shape="5110.89,6086.35 5086.38,6091.28"/>
    </edge>
    <edge id="05538-0-re" from="f5e68401-269f-4467-9f51-6ac4dfe05538-km-25-gegen" to="7065e" priority="-1" spreadType="center" bidi="05538-0">
        <lane id="05538-0-re_0" index="0" allow="rail rail_electric" speed="110.00" length="25.00" shape="5086.38,6091.28 5110.89,6086.35"/>
    </edge>
    <edge id="05538-1" from="f5e68401-269f-4467-9f51-6ac4dfe05538-km-25-gegen" to="f5e68401-269f-4467-9f51-6ac4dfe05538-km-601.9935674681889-in" priority="-1" spreadType="center" shape="5086.38,6091.28 4599.54,6189.35 4548.72,6203.25 4521.83,6209.83" bidi="05538-1-re">
        <lane id="05538-1_0" index="0" allow="rail rail_electric" speed="110.00" length="576.99" shape="5086.38,6091.28 4599.54,6189.35 4548.72,6203.25 4521.83,6209.83"/>
    </edge>
    <edge id="05538-1-re" from="f5e68401-269f-4467-9f51-6ac4dfe05538-km-601.9935674681889-in" to="f5e68401-269f-4467-9f51-6ac4dfe05538-km-25-gegen" priority="-1" spreadType="center" shape="4521.83,6209.83 4548.72,6203.25 4599.54,6189.35 5086.38,6091.28" bidi="05538-1">
        <lane id="05538-1-re_0" index="0" allow="rail rail_electric" speed="110.00" length="576.99" shape="4521.83,6209.83 4548.72,6203.25 4599.54,6189.35 5086.38,6091.28"/>
    </edge>
    <edge id="05538-2" from="f5e68401-269f-4467-9f51-6ac4dfe05538-km-601.9935674681889-in" to="5806c" priority="-1" spreadType="center" bidi="05538-2-re">
        <lane id="05538-2_0" index="0" allow="rail rail_electric" speed="110.00" length="25.00" shape="4521.83,6209.83 4497.54,6215.77"/>
    </edge>
    <edge id="05538-2-re" from="5806c" to="f5e68401-269f-4467-9f51-6ac4dfe05538-km-601.9935674681889-in" priority="-1" spreadType="center" bidi="05538-2">
        <lane id="05538-2-re_0" index="0" allow="rail rail_electric" speed="110.00" length="25.00" shape="4497.54,6215.77 4521.83,6209.83"/>
    </edge>
    <edge id="07460-0" from="883dc" to="d05fb" priority="-1" spreadType="center" bidi="07460-0-re">
        <lane id="07460-0_0" index="0" allow="rail rail_electric" speed="110.00" length="79.23" shape="5932.78,7688.45 5855.13,7704.21"/>
    </edge>
    <edge id="07460-0-re" from="d05fb" to="883dc" priority="-1" spreadType="center" bidi="07460-0">
        <lane id="07460-0-re_0" index="0" allow="rail rail_electric" speed="110.00" length="79.23" shape="5855.13,7704.21 5932.78,7688.45"/>
    </edge>
    <edge id="095d7-0" from="99d96" to="26c1a0aa-3e18-4974-abd1-a4739cb095d7-km-25-gegen" priority="-1" spreadType="center" bidi="095d7-0-re">
        <lane id="095d7-0_0" index="0" allow="rail rail_electric" speed="110.00" length="25.00" shape="9028.85,6623.95 9032.79,6599.37"/>
    </edge>
    <edge id="095d7-0-re" from="26c1a0aa-3e18-4974-abd1-a4739cb095d7-km-25-gegen" to="99d96" priority="-1" spreadType="center" bidi="095d7-0">
        <lane id="095d7-0-re_0" index="0" allow="rail rail_electric" speed="110.00" length="25.00" shape="9032.79,6599.37 9028.85,6623.95"/>
    </edge>
    <edge id="095d7-1" from="26c1a0aa-3e18-4974-abd1-a4739cb095d7-km-25-gegen" to="26c1a0aa-3e18-4974-abd1-a4739cb095d7-km-539.3988472628678-in" priority="-1" spreadType="center" shape="9032.79,6599.37 9056.15,6453.72 9074.75,6224.04 9084.14,6087.90" bidi="095d7-1-re">
        <lane id="095d7-1_0" index="0" allow="rail rail_electric" speed="110.00" length="514.40" shape="9032.79,6599.37 9056.15,6453.72 9074.75,6224.04 9084.14,6087.90"/>
    </edge>
    <edge id="095d7-1-re" from="26c1a0aa-3e18-4974-abd1-a4739cb095d7-km-539.3988472628678-in" to="26c1a0aa-3e18-4974-abd1-a4739cb095d7-km-25-gegen" priority="-1" spreadType="center" shape="9084.14,6087.90 9074.75,6224.04 9056.15,6453.72 9032.79,6599.37" bidi="095d7-1">
        <lane id="095d7-1-re_0" index="0" allow="rail rail_electric" speed="110.00" length="514.40" shape="9084.14,6087.90 9074.75,6224.04 9056.15,6453.72 9032.79,6599.37"/>
    </edge>
    <edge id="095d7-2" from="26c1a0aa-3e18-4974-abd1-a4739cb095d7-km-539.3988472628678-in" to="79274" priority="-1" spreadType="center" bidi="095d7-2-re">
        <lane id="095d7-2_0" index="0" allow="rail rail_electric" speed="110.00" length="25.00" shape="9084.14,6087.90 9085.86,6063.07"/>
    </edge>
    <edge id="095d7-2-re" from="79274" to="26c1a0aa-3e18-4974-abd1-a4739cb095d7-km-539.3988472628678-in" priority="-1" spreadType="center" bidi="095d7-2">
        <lane id="095d7-2-re_0" index="0" allow="rail rail_electric" speed="110.00" length="25.00" shape="9085.86,6063.07 9084.14,6087.90"/>
    </edge>
    <edge id="0a2cc-0" from="c311b" to="cae59" priority="-1" spreadType="center" shape="9112.86,6592.93 9099.55,6657.30 9095.30,6687.78" bidi="0a2cc-0-re">
        <lane id="0a2cc-0_0" index="0" allow="rail rail_electric" speed="110.00" length="96.51" shape="9112.84,6593.04 9099.55,6657.30 9095.30,6687.78"/>
    </edge>
    <edge id="0a2cc-0-re" from="cae59" to="c311b" priority="-1" spreadType="center" shape="9095.30,6687.78 9099.55,6657.30 9112.86,6592.93" bidi="0a2cc-0">
        <lane id="0a2cc-0-re_0" index="0" allow="rail rail_electric" speed="110.00" length="96.51" shape="9095.30,6687.78 9099.55,6657.30 9112.84,6593.04"/>
    </edge>
    <edge id="0a76b-0" from="e29e1" to="c7969c14-f350-4663-b808-367db130a76b-km-25-gegen" priority="-1" spreadType="center" bidi="0a76b-0-re">
        <lane id="0a76b-0_0" index="0" allow="rail rail_electric" speed="110.00" length="25.00" shape="7328.15,5673.49 7304.04,5680.10"/>
    </edge>
    <edge id="0a76b-0-re" from="c7969c14-f350-4663-b808-367db130a76b-km-25-gegen" to="e29e1" priority="-1" spreadType="center" bidi="0a76b-0">
        <lane id="0a76b-0-re_0" index="0" allow="rail rail_electric" speed="110.00" length="25.00" shape="7304.04,5680.10 7328.15,5673.49"/>
    </edge>
    <edge id="0a76b-1" from="c7969c14-f350-4663-b808-367db130a76b-km-25-gegen" to="8464b" priority="-1" spreadType="center" shape="7304.04,5680.10 7141.84,5724.59 7093.89,5735.55 6691.70,5816.27 6637.26,5826.04 6510.73,5841.75" bidi="0a76b-1-re">
        <lane id="0a76b-1_0" index="0" allow="rail rail_electric" speed="110.00" length="810.39" shape="7304.04,5680.10 7141.84,5724.59 7093.89,5735.55 6691.70,5816.27 6637.26,5826.04 6510.73,5841.75"/>
    </edge>
    <edge id="0a76b-1-re" from="8464b" to="c7969c14-f350-4663-b808-367db130a76b-km-25-gegen" priority="-1" spreadType="center" shape="6510.73,5841.75 6637.26,5826.04 6691.70,5816.27 7093.89,5735.55 7141.84,5724.59 7304.04,5680.10" bidi="0a76b-1">
        <lane id="0a76b-1-re_0" index="0" allow="rail rail_electric" speed="110.00" length="810.39" shape="6510.73,5841.75 6637.26,5826.04 6691.70,5816.27 7093.89,5735.55 7141.84,5724.59 7304.04,5680.10"/>
    </edge>
    <edge id="0a98e-0" from="542ba" to="1363ff5d-260e-4964-85ae-ae577140a98e-km-95.17043197080896-in" priority="-1" spreadType="center" bidi="0a98e-0-re">
        <lane id="0a98e-0_0" index="0" allow="rail rail_electric" speed="110.00" length="95.17" shape="6545.95,5955.92 6452.52,5974.06"/>
    </edge>
    <edge id="0a98e-0-re" from="1363ff5d-260e-4964-85ae-ae577140a98e-km-95.17043197080896-in" to="542ba" priority="-1" spreadType="center" bidi="0a98e-0">
        <lane id="0a98e-0-re_0" index="0" allow="rail rail_electric" speed="110.00" length="95.17" shape="6452.52,5974.06 6545.95,5955.92"/>
    </edge>
    <edge id="0a98e-1" from="1363ff5d-260e-4964-85ae-ae577140a98e-km-95.17043197080896-in" to="59697" priority="-1" spreadType="center" bidi="0a98e-1-re">
        <lane id="0a98e-1_0" index="0" allow="rail rail_electric" speed="110.00" length="25.00" shape="6452.52,5974.06 6427.98,5978.82"/>
    </edge>
    <edge id="0a98e-1-re" from="59697" to="1363ff5d-260e-4964-85ae-ae577140a98e-km-95.17043197080896-in" priority="-1" spreadType="center" bidi="0a98e-1">
        <lane id="0a98e-1-re_0" index="0" allow="rail rail_electric" speed="110.00" length="25.00" shape="6427.98,5978.82 6452.52,5974.06"/>
    </edge>
    <edge id="0b451-0" from="d3d30" to="49ef837a-f493-44a9-8ece-4d8689d0b451-km-1-in" priority="-1" spreadType="center" bidi="0b451-0-re">
        <lane id="0b451-0_0" index="0" allow="rail rail_electric" speed="110.00" length="1.00" shape="9241.76,4610.48 9242.65,4610.02"/>
    </edge>
    <edge id="0b451-0-re" from="49ef837a-f493-44a9-8ece-4d8689d0b451-km-1-in" to="d3d30" priority="-1" spreadType="center" bidi="0b451-0">
        <lane id="0b451-0-re_0" index="0" allow="rail rail_electric" speed="110.00" length="1.00" shape="9242.65,4610.02 9241.76,4610.48"/>
    </edge>
    <edge id="0b451-1" from="49ef837a-f493-44a9-8ece-4d8689d0b451-km-1-in" to="49ef837a-f493-44a9-8ece-4d8689d0b451-km-1-gegen" priority="-1" spreadType="center" shape="9242.75,4610.12 9242.65,4610.02" bidi="0b451-1-re">
        <lane id="0b451-1_0" index="0" allow="rail rail_electric" speed="110.00" length="0.28" shape="9242.75,4610.12 9242.65,4610.02"/>
    </edge>
    <edge id="0b451-1-re" from="49ef837a-f493-44a9-8ece-4d8689d0b451-km-1-gegen" to="49ef837a-f493-44a9-8ece-4d8689d0b451-km-1-in" priority="-1" spreadType="center" shape="9242.65,4610.02 9242.75,4610.12" bidi="0b451-1">
        <lane id="0b451-1-re_0" index="0" allow="rail rail_electric" speed="110.00" length="0.28" shape="9242.65,4610.02 9242.75,4610.12"/>
    </edge>
    <edge id="0b451-2" from="49ef837a-f493-44a9-8ece-4d8689d0b451-km-1-gegen" to="49ef837a-f493-44a9-8ece-4d8689d0b451-km-1956.2630843989714-in" priority="-1" spreadType="center" shape="9242.65,4610.02 9467.24,4494.80 9591.55,4421.11 9722.18,4337.50 9899.56,4217.43 10064.34,4092.86 10227.56,3946.83 10267.34,3907.89 10331.26,3845.39 10395.75,3777.58 10480.67,3681.96 10598.71,3529.82 10617.92,3501.67 10667.97,3432.20 10687.14,3406.85 10708.12,3379.32 10719.50,3365.03" bidi="0b451-2-re">
        <lane id="0b451-2_0" index="0" allow="rail rail_electric" speed="110.00" length="1955.26" shape="9243.68,4609.49 9467.24,4494.80 9591.55,4421.11 9722.18,4337.50 9899.56,4217.43 10064.34,4092.86 10227.56,3946.83 10267.34,3907.89 10331.26,3845.39 10395.75,3777.58 10480.67,3681.96 10598.71,3529.82 10617.92,3501.67 10667.97,3432.20 10687.14,3406.85 10708.12,3379.32 10719.50,3365.03"/>
    </edge>
    <edge id="0b451-2-re" from="49ef837a-f493-44a9-8ece-4d8689d0b451-km-1956.2630843989714-in" to="49ef837a-f493-44a9-8ece-4d8689d0b451-km-1-gegen" priority="-1" spreadType="center" shape="10719.50,3365.03 10708.12,3379.32 10687.14,3406.85 10667.97,3432.20 10617.92,3501.67 10598.71,3529.82 10480.67,3681.96 10395.75,3777.58 10331.26,3845.39 10267.34,3907.89 10227.56,3946.83 10064.34,4092.86 9899.56,4217.43 9722.18,4337.50 9591.55,4421.11 9467.24,4494.80 9242.65,4610.02" bidi="0b451-2">
        <lane id="0b451-2-re_0" index="0" allow="rail rail_electric" speed="110.00" length="1955.26" shape="10719.50,3365.03 10708.12,3379.32 10687.14,3406.85 10667.97,3432.20 10617.92,3501.67 10598.71,3529.82 10480.67,3681.96 10395.75,3777.58 10331.26,3845.39 10267.34,3907.89 10227.56,3946.83 10064.34,4092.86 9899.56,4217.43 9722.18,4337.50 9591.55,4421.11 9467.24,4494.80 9243.68,4609.49"/>
    </edge>
    <edge id="0b451-3" from="49ef837a-f493-44a9-8ece-4d8689d0b451-km-1956.2630843989714-in" to="ef4f6" priority="-1" spreadType="center" bidi="0b451-3-re">
        <lane id="0b451-3_0" index="0" allow="rail rail_electric" speed="110.00" length="25.00" shape="10719.50,3365.03 10735.00,3345.58"/>
    </edge>
    <edge id="0b451-3-re" from="ef4f6" to="49ef837a-f493-44a9-8ece-4d8689d0b451-km-1956.2630843989714-in" priority="-1" spreadType="center" bidi="0b451-3">
        <lane id="0b451-3-re_0" index="0" allow="rail rail_electric" speed="110.00" length="25.00" shape="10735.00,3345.58 10719.50,3365.03"/>
    </edge>
    <edge id="0c0a3-0" from="52316" to="316ced43-866a-4b31-bef0-1ef83610c0a3-km-25-gegen" priority="-1" spreadType="center" bidi="0c0a3-0-re">
        <lane id="0c0a3-0_0" index="0" allow="rail rail_electric" speed="110.00" length="25.00" shape="7579.57,6005.54 7603.79,5999.37"/>
    </edge>
    <edge id="0c0a3-0-re" from="316ced43-866a-4b31-bef0-1ef83610c0a3-km-25-gegen" to="52316" priority="-1" spreadType="center" bidi="0c0a3-0">
        <lane id="0c0a3-0-re_0" index="0" allow="rail rail_electric" speed="110.00" length="25.00" shape="7603.79,5999.37 7579.57,6005.54"/>
    </edge>
    <edge id="0c0a3-1" from="316ced43-866a-4b31-bef0-1ef83610c0a3-km-25-gegen" to="316ced43-866a-4b31-bef0-1ef83610c0a3-km-1046.991806851688-in" priority="-1" spreadType="center" shape="7603.79,5999.37 7729.36,5967.41 7774.90,5956.56 8169.81,5876.90 8245.20,5865.31 8276.78,5858.74 8460.94,5822.77 8501.36,5815.88 8568.13,5807.19 8605.94,5801.50" bidi="0c0a3-1-re">
        <lane id="0c0a3-1_0" index="0" allow="rail rail_electric" speed="110.00" length="1021.99" shape="7603.79,5999.37 7729.36,5967.41 7774.90,5956.56 8169.81,5876.90 8245.20,5865.31 8276.78,5858.74 8460.94,5822.77 8501.36,5815.88 8568.13,5807.19 8605.94,5801.50"/>
    </edge>
    <edge id="0c0a3-1-re" from="316ced43-866a-4b31-bef0-1ef83610c0a3-km-1046.991806851688-in" to="316ced43-866a-4b31-bef0-1ef83610c0a3-km-25-gegen" priority="-1" spreadType="center" shape="8605.94,5801.50 8568.13,5807.19 8501.36,5815.88 8460.94,5822.77 8276.78,5858.74 8245.20,5865.31 8169.81,5876.90 7774.90,5956.56 7729.36,5967.41 7603.79,5999.37" bidi="0c0a3-1">
        <lane id="0c0a3-1-re_0" index="0" allow="rail rail_electric" speed="110.00" length="1021.99" shape="8605.94,5801.50 8568.13,5807.19 8501.36,5815.88 8460.94,5822.77 8276.78,5858.74 8245.20,5865.31 8169.81,5876.90 7774.90,5956.56 7729.36,5967.41 7603.79,5999.37"/>
    </edge>
    <edge id="0c0a3-2" from="316ced43-866a-4b31-bef0-1ef83610c0a3-km-1046.991806851688-in" to="44010" priority="-1" spreadType="center" bidi="0c0a3-2-re">
        <lane id="0c0a3-2_0" index="0" allow="rail rail_electric" speed="110.00" length="25.00" shape="8605.94,5801.50 8630.66,5797.78"/>
    </edge>
    <edge id="0c0a3-2-re" from="44010" to="316ced43-866a-4b31-bef0-1ef83610c0a3-km-1046.991806851688-in" priority="-1" spreadType="center" bidi="0c0a3-2">
        <lane id="0c0a3-2-re_0" index="0" allow="rail rail_electric" speed="110.00" length="25.00" shape="8630.66,5797.78 8605.94,5801.50"/>
    </edge>
    <edge id="0d2f7-0" from="7ab3d" to="1c229" priority="-1" spreadType="center" bidi="0d2f7-0-re">
        <lane id="0d2f7-0_0" index="0" allow="rail rail_electric" speed="110.00" length="95.68" shape="3827.80,7592.03 3846.96,7685.78"/>
    </edge>
    <edge id="0d2f7-0-re" from="1c229" to="7ab3d" priority="-1" spreadType="center" bidi="0d2f7-0">
        <lane id="0d2f7-0-re_0" index="0" allow="rail rail_electric" speed="110.00" length="95.68" shape="3846.96,7685.78 3827.80,7592.03"/>
    </edge>
    <edge id="0d816-0" from="1ef7a" to="61c298ea-8bf7-490b-80ea-b2a0c120d816-km-139.86300248899624-in" priority="-1" spreadType="center" bidi="0d816-0-re">
        <lane id="0d816-0_0" index="0" allow="rail rail_electric" speed="110.00" length="139.86" shape="3748.63,7225.01 3774.06,7362.54"/>
    </edge>
    <edge id="0d816-0-re" from="61c298ea-8bf7-490b-80ea-b2a0c120d816-km-139.86300248899624-in" to="1ef7a" priority="-1" spreadType="center" bidi="0d816-0">
        <lane id="0d816-0-re_0" index="0" allow="rail rail_electric" speed="110.00" length="139.86" shape="3774.06,7362.54 3748.63,7225.01"/>
    </edge>
    <edge id="0d816-1" from="61c298ea-8bf7-490b-80ea-b2a0c120d816-km-139.86300248899624-in" to="3539f" priority="-1" spreadType="center" bidi="0d816-1-re">
        <lane id="0d816-1_0" index="0" allow="rail rail_electric" speed="110.00" length="25.00" shape="3774.06,7362.54 3778.58,7386.99"/>
    </edge>
    <edge id="0d816-1-re" from="3539f" to="61c298ea-8bf7-490b-80ea-b2a0c120d816-km-139.86300248899624-in" priority="-1" spreadType="center" bidi="0d816-1">
        <lane id="0d816-1-re_0" index="0" allow="rail rail_electric" speed="110.00" length="25.00" shape="3778.58,7386.99 3774.06,7362.54"/>
    </edge>
    <edge id="0e6e0-0" from="62831" to="fa809" priority="-1" spreadType="center" bidi="0e6e0-0-re">
        <lane id="0e6e0-0_0" index="0" allow="rail rail_electric" speed="110.00" length="53.03" shape="3782.44,7232.16 3792.53,7284.03"/>
    </edge>
    <edge id="0e6e0-0-re" from="fa809" to="62831" priority="-1" spreadType="center" bidi="0e6e0-0">
        <lane id="0e6e0-0-re_0" index="0" allow="rail rail_electric" speed="110.00" length="53.03" shape="3792.53,7284.03 3782.44,7232.16"/>
    </edge>
    <edge id="0f8a2-0" from="988e6" to="6f989a01-1080-4d1a-bafa-cc018d00f8a2-km-25-gegen" priority="-1" spreadType="center" bidi="0f8a2-0-re">
        <lane id="0f8a2-0_0" index="0" allow="rail rail_electric" speed="110.00" length="25.00" shape="10568.38,3739.80 10580.45,3718.03"/>
    </edge>
    <edge id="0f8a2-0-re" from="6f989a01-1080-4d1a-bafa-cc018d00f8a2-km-25-gegen" to="988e6" priority="-1" spreadType="center" bidi="0f8a2-0">
        <lane id="0f8a2-0-re_0" index="0" allow="rail rail_electric" speed="110.00" length="25.00" shape="10580.45,3718.03 10568.38,3739.80"/>
    </edge>