<?xml version="1.0" encoding="UTF-8"?>

<!-- generated on 2023-06-13 12:35:58 by Eclipse SUMO netconvert Version v1_17_0+0919-6a4cbcaacb7
<configuration xmlns:xsi="http://www.w3.org/2001/XMLSchema-instance" xsi:noNamespaceSchemaLocation="http://sumo.dlr.de/xsd/netconvertConfiguration.xsd">

    <input>
        <node-files value="sumo-config/schwarze_pumpe_v1.nod.xml"/>
        <edge-files value="sumo-config/schwarze_pumpe_v1.edg.xml"/>
        <connection-files value="sumo-config/schwarze_pumpe_v1.con.xml"/>
    </input>

    <output>
        <output-file value="sumo-config/schwarze_pumpe_v1.net.xml"/>
    </output>

    <junctions>
        <no-internal-links value="true"/>
        <junctions.minimal-shape value="true"/>
    </junctions>

    <railway>
        <railway.topology.repair value="true"/>
        <railway.topology.repair.connect-straight value="true"/>
        <railway.topology.all-bidi value="false"/>
    </railway>

</configuration>
-->

<net version="1.16" junctionCornerDetail="5" limitTurnSpeed="5.50" xmlns:xsi="http://www.w3.org/2001/XMLSchema-instance" xsi:noNamespaceSchemaLocation="http://sumo.dlr.de/xsd/net_file.xsd">

    <location netOffset="2506174.81,-3459405.32" convBoundary="0.00,0.00,12719.19,11737.42" origBoundary="-2506174.81,3459405.32,-2493455.62,3471142.74" projParameter="!"/>

    <edge id="003d4-0" from="1c8c8" to="2b8a060c-c1a2-4b21-bc25-132d91c003d4-km-25-gegen" priority="-1" spreadType="center" bidi="003d4-0-re">
        <lane id="003d4-0_0" index="0" allow="rail rail_electric" speed="110.00" length="25.00" shape="9099.16,6799.18 9100.81,6774.35"/>
    </edge>
    <edge id="003d4-0-re" from="2b8a060c-c1a2-4b21-bc25-132d91c003d4-km-25-gegen" to="1c8c8" priority="-1" spreadType="center" bidi="003d4-0">
        <lane id="003d4-0-re_0" index="0" allow="rail rail_electric" speed="110.00" length="25.00" shape="9100.81,6774.35 9099.16,6799.18"/>
    </edge>
    <edge id="003d4-1" from="2b8a060c-c1a2-4b21-bc25-132d91c003d4-km-25-gegen" to="2b8a060c-c1a2-4b21-bc25-132d91c003d4-km-45-in" priority="-1" spreadType="center" bidi="003d4-1-re">
        <lane id="003d4-1_0" index="0" allow="rail rail_electric" speed="110.00" length="20.00" shape="9100.81,6774.35 9102.13,6754.40"/>
    </edge>
    <edge id="003d4-1-re" from="2b8a060c-c1a2-4b21-bc25-132d91c003d4-km-45-in" to="2b8a060c-c1a2-4b21-bc25-132d91c003d4-km-25-gegen" priority="-1" spreadType="center" bidi="003d4-1">
        <lane id="003d4-1-re_0" index="0" allow="rail rail_electric" speed="110.00" length="20.00" shape="9102.13,6754.40 9100.81,6774.35"/>
    </edge>
    <edge id="003d4-2" from="2b8a060c-c1a2-4b21-bc25-132d91c003d4-km-45-in" to="2b8a060c-c1a2-4b21-bc25-132d91c003d4-km-161.82554428269663-gegen" priority="-1" spreadType="center" bidi="003d4-2-re">
        <lane id="003d4-2_0" index="0" allow="rail rail_electric" speed="110.00" length="116.83" shape="9102.13,6754.40 9109.88,6637.83"/>
    </edge>
    <edge id="003d4-2-re" from="2b8a060c-c1a2-4b21-bc25-132d91c003d4-km-161.82554428269663-gegen" to="2b8a060c-c1a2-4b21-bc25-132d91c003d4-km-45-in" priority="-1" spreadType="center" bidi="003d4-2">
        <lane id="003d4-2-re_0" index="0" allow="rail rail_electric" speed="110.00" length="116.83" shape="9109.88,6637.83 9102.13,6754.40"/>
    </edge>
    <edge id="003d4-3" from="2b8a060c-c1a2-4b21-bc25-132d91c003d4-km-161.82554428269663-gegen" to="2b8a060c-c1a2-4b21-bc25-132d91c003d4-km-181.82554428269663-in" priority="-1" spreadType="center" bidi="003d4-3-re">
        <lane id="003d4-3_0" index="0" allow="rail rail_electric" speed="110.00" length="20.00" shape="9109.88,6637.83 9111.21,6617.87"/>
    </edge>
    <edge id="003d4-3-re" from="2b8a060c-c1a2-4b21-bc25-132d91c003d4-km-181.82554428269663-in" to="2b8a060c-c1a2-4b21-bc25-132d91c003d4-km-161.82554428269663-gegen" priority="-1" spreadType="center" bidi="003d4-3">
        <lane id="003d4-3-re_0" index="0" allow="rail rail_electric" speed="110.00" length="20.00" shape="9111.21,6617.87 9109.88,6637.83"/>
    </edge>
    <edge id="003d4-4" from="2b8a060c-c1a2-4b21-bc25-132d91c003d4-km-181.82554428269663-in" to="bdb20" priority="-1" spreadType="center" bidi="003d4-4-re">
        <lane id="003d4-4_0" index="0" allow="rail rail_electric" speed="110.00" length="25.00" shape="9111.21,6617.87 9112.86,6593.04"/>
    </edge>
    <edge id="003d4-4-re" from="bdb20" to="2b8a060c-c1a2-4b21-bc25-132d91c003d4-km-181.82554428269663-in" priority="-1" spreadType="center" bidi="003d4-4">
        <lane id="003d4-4-re_0" index="0" allow="rail rail_electric" speed="110.00" length="25.00" shape="9112.86,6593.04 9111.21,6617.87"/>
    </edge>
    <edge id="00ebd-0" from="91d63" to="7b5a6f63-6a70-496f-9b10-432653100ebd-km-25-gegen" priority="-1" spreadType="center" bidi="00ebd-0-re">
        <lane id="00ebd-0_0" index="0" allow="rail rail_electric" speed="110.00" length="25.00" shape="7384.07,7083.13 7359.86,7089.35"/>
    </edge>
    <edge id="00ebd-0-re" from="7b5a6f63-6a70-496f-9b10-432653100ebd-km-25-gegen" to="91d63" priority="-1" spreadType="center" bidi="00ebd-0">
        <lane id="00ebd-0-re_0" index="0" allow="rail rail_electric" speed="110.00" length="25.00" shape="7359.86,7089.35 7384.07,7083.13"/>
    </edge>
    <edge id="00ebd-1" from="7b5a6f63-6a70-496f-9b10-432653100ebd-km-25-gegen" to="7b5a6f63-6a70-496f-9b10-432653100ebd-km-45-in" priority="-1" spreadType="center" bidi="00ebd-1-re">
        <lane id="00ebd-1_0" index="0" allow="rail rail_electric" speed="110.00" length="20.00" shape="7359.86,7089.35 7340.49,7094.33"/>
    </edge>
    <edge id="00ebd-1-re" from="7b5a6f63-6a70-496f-9b10-432653100ebd-km-45-in" to="7b5a6f63-6a70-496f-9b10-432653100ebd-km-25-gegen" priority="-1" spreadType="center" bidi="00ebd-1">
        <lane id="00ebd-1-re_0" index="0" allow="rail rail_electric" speed="110.00" length="20.00" shape="7340.49,7094.33 7359.86,7089.35"/>
    </edge>
    <edge id="00ebd-2" from="7b5a6f63-6a70-496f-9b10-432653100ebd-km-45-in" to="7b5a6f63-6a70-496f-9b10-432653100ebd-km-549.6932917515114-gegen" priority="-1" spreadType="center" shape="7340.49,7094.33 7287.93,7107.84 7245.80,7118.23 7233.78,7120.66 6962.23,7175.66 6941.12,7179.80 6892.32,7186.28 6850.40,7191.46 6845.74,7192.26" bidi="00ebd-2-re">
        <lane id="00ebd-2_0" index="0" allow="rail rail_electric" speed="110.00" length="504.69" shape="7340.49,7094.33 7287.93,7107.84 7245.80,7118.23 7233.78,7120.66 6962.23,7175.66 6941.12,7179.80 6892.32,7186.28 6850.40,7191.46 6845.74,7192.26"/>
    </edge>
    <edge id="00ebd-2-re" from="7b5a6f63-6a70-496f-9b10-432653100ebd-km-549.6932917515114-gegen" to="7b5a6f63-6a70-496f-9b10-432653100ebd-km-45-in" priority="-1" spreadType="center" shape="6845.74,7192.26 6850.40,7191.46 6892.32,7186.28 6941.12,7179.80 6962.23,7175.66 7233.78,7120.66 7245.80,7118.23 7287.93,7107.84 7340.49,7094.33" bidi="00ebd-2">
        <lane id="00ebd-2-re_0" index="0" allow="rail rail_electric" speed="110.00" length="504.69" shape="6845.74,7192.26 6850.40,7191.46 6892.32,7186.28 6941.12,7179.80 6962.23,7175.66 7233.78,7120.66 7245.80,7118.23 7287.93,7107.84 7340.49,7094.33"/>
    </edge>
    <edge id="00ebd-3" from="7b5a6f63-6a70-496f-9b10-432653100ebd-km-549.6932917515114-gegen" to="7b5a6f63-6a70-496f-9b10-432653100ebd-km-569.6932917515114-in" priority="-1" spreadType="center" bidi="00ebd-3-re">
        <lane id="00ebd-3_0" index="0" allow="rail rail_electric" speed="110.00" length="20.00" shape="6845.74,7192.26 6826.03,7195.64"/>
    </edge>
    <edge id="00ebd-3-re" from="7b5a6f63-6a70-496f-9b10-432653100ebd-km-569.6932917515114-in" to="7b5a6f63-6a70-496f-9b10-432653100ebd-km-549.6932917515114-gegen" priority="-1" spreadType="center" bidi="00ebd-3">
        <lane id="00ebd-3-re_0" index="0" allow="rail rail_electric" speed="110.00" length="20.00" shape="6826.03,7195.64 6845.74,7192.26"/>
    </edge>
    <edge id="00ebd-4" from="7b5a6f63-6a70-496f-9b10-432653100ebd-km-569.6932917515114-in" to="c7836" priority="-1" spreadType="center" bidi="00ebd-4-re">
        <lane id="00ebd-4_0" index="0" allow="rail rail_electric" speed="110.00" length="25.00" shape="6826.03,7195.64 6801.39,7199.86"/>
    </edge>
    <edge id="00ebd-4-re" from="c7836" to="7b5a6f63-6a70-496f-9b10-432653100ebd-km-569.6932917515114-in" priority="-1" spreadType="center" bidi="00ebd-4">
        <lane id="00ebd-4-re_0" index="0" allow="rail rail_electric" speed="110.00" length="25.00" shape="6801.39,7199.86 6826.03,7195.64"/>
    </edge>
    <edge id="01062-0" from="4bf81" to="c1bae" priority="-1" spreadType="center" bidi="01062-0-re">
        <lane id="01062-0_0" index="0" allow="rail rail_electric" speed="110.00" length="40.73" shape="7501.14,7937.60 7541.05,7929.44"/>
    </edge>
    <edge id="01062-0-re" from="c1bae" to="4bf81" priority="-1" spreadType="center" bidi="01062-0">
        <lane id="01062-0-re_0" index="0" allow="rail rail_electric" speed="110.00" length="40.73" shape="7541.05,7929.44 7501.14,7937.60"/>
    </edge>
    <edge id="05030-0" from="7fc87" to="a1001821-8c0e-4b56-80cc-385aa7105030-km-25-gegen" priority="-1" spreadType="center" bidi="05030-0-re">
        <lane id="05030-0_0" index="0" allow="rail rail_electric" speed="110.00" length="25.00" shape="10422.02,4021.88 10433.54,3999.70"/>
    </edge>
    <edge id="05030-0-re" from="a1001821-8c0e-4b56-80cc-385aa7105030-km-25-gegen" to="7fc87" priority="-1" spreadType="center" bidi="05030-0">
        <lane id="05030-0-re_0" index="0" allow="rail rail_electric" speed="110.00" length="25.00" shape="10433.54,3999.70 10422.02,4021.88"/>
    </edge>
    <edge id="05030-1" from="a1001821-8c0e-4b56-80cc-385aa7105030-km-25-gegen" to="a1001821-8c0e-4b56-80cc-385aa7105030-km-45-in" priority="-1" spreadType="center" bidi="05030-1-re">
        <lane id="05030-1_0" index="0" allow="rail rail_electric" speed="110.00" length="20.00" shape="10433.54,3999.70 10442.76,3981.95"/>
    </edge>
    <edge id="05030-1-re" from="a1001821-8c0e-4b56-80cc-385aa7105030-km-45-in" to="a1001821-8c0e-4b56-80cc-385aa7105030-km-25-gegen" priority="-1" spreadType="center" bidi="05030-1">
        <lane id="05030-1-re_0" index="0" allow="rail rail_electric" speed="110.00" length="20.00" shape="10442.76,3981.95 10433.54,3999.70"/>
    </edge>
    <edge id="05030-2" from="a1001821-8c0e-4b56-80cc-385aa7105030-km-45-in" to="a1001821-8c0e-4b56-80cc-385aa7105030-km-254.39386848397498-gegen" priority="-1" spreadType="center" bidi="05030-2-re">
        <lane id="05030-2_0" index="0" allow="rail rail_electric" speed="110.00" length="209.39" shape="10442.76,3981.95 10539.26,3796.12"/>
    </edge>
    <edge id="05030-2-re" from="a1001821-8c0e-4b56-80cc-385aa7105030-km-254.39386848397498-gegen" to="a1001821-8c0e-4b56-80cc-385aa7105030-km-45-in" priority="-1" spreadType="center" bidi="05030-2">
        <lane id="05030-2-re_0" index="0" allow="rail rail_electric" speed="110.00" length="209.39" shape="10539.26,3796.12 10442.76,3981.95"/>
    </edge>
    <edge id="05030-3" from="a1001821-8c0e-4b56-80cc-385aa7105030-km-254.39386848397498-gegen" to="a1001821-8c0e-4b56-80cc-385aa7105030-km-274.393868483975-in" priority="-1" spreadType="center" bidi="05030-3-re">
        <lane id="05030-3_0" index="0" allow="rail rail_electric" speed="110.00" length="20.00" shape="10539.26,3796.12 10548.47,3778.37"/>
    </edge>
    <edge id="05030-3-re" from="a1001821-8c0e-4b56-80cc-385aa7105030-km-274.393868483975-in" to="a1001821-8c0e-4b56-80cc-385aa7105030-km-254.39386848397498-gegen" priority="-1" spreadType="center" bidi="05030-3">
        <lane id="05030-3-re_0" index="0" allow="rail rail_electric" speed="110.00" length="20.00" shape="10548.47,3778.37 10539.26,3796.12"/>
    </edge>
    <edge id="05030-4" from="a1001821-8c0e-4b56-80cc-385aa7105030-km-274.393868483975-in" to="319c8" priority="-1" spreadType="center" bidi="05030-4-re">
        <lane id="05030-4_0" index="0" allow="rail rail_electric" speed="110.00" length="25.00" shape="10548.47,3778.37 10560.00,3756.18"/>
    </edge>
    <edge id="05030-4-re" from="319c8" to="a1001821-8c0e-4b56-80cc-385aa7105030-km-274.393868483975-in" priority="-1" spreadType="center" bidi="05030-4">
        <lane id="05030-4-re_0" index="0" allow="rail rail_electric" speed="110.00" length="25.00" shape="10560.00,3756.18 10548.47,3778.37"/>
    </edge>
    <edge id="05113-0" from="b49fb" to="15e27" priority="-1" spreadType="center" bidi="05113-0-re">
        <lane id="05113-0_0" index="0" allow="rail rail_electric" speed="110.00" length="52.23" shape="9137.93,5771.29 9143.25,5823.14"/>
    </edge>
    <edge id="05113-0-re" from="15e27" to="b49fb" priority="-1" spreadType="center" bidi="05113-0">
        <lane id="05113-0-re_0" index="0" allow="rail rail_electric" speed="110.00" length="52.23" shape="9143.25,5823.14 9137.93,5771.29"/>
    </edge>
    <edge id="068e3-0" from="52f4a" to="347d0" priority="-1" spreadType="center" bidi="068e3-0-re">
        <lane id="068e3-0_0" index="0" allow="rail rail_electric" speed="110.00" length="40.78" shape="4681.43,7715.71 4645.62,7696.40"/>
    </edge>
    <edge id="068e3-0-re" from="347d0" to="52f4a" priority="-1" spreadType="center" bidi="068e3-0">
        <lane id="068e3-0-re_0" index="0" allow="rail rail_electric" speed="110.00" length="40.78" shape="4645.62,7696.40 4681.43,7715.71"/>
    </edge>
    <edge id="075fd-0" from="1cbb0" to="69d2444f-2ddf-40a7-b437-8ace363075fd-km-25-gegen" priority="-1" spreadType="center" bidi="075fd-0-re">
        <lane id="075fd-0_0" index="0" allow="rail rail_electric" speed="110.00" length="25.00" shape="4307.38,7763.69 4288.22,7747.81"/>
    </edge>
    <edge id="075fd-0-re" from="69d2444f-2ddf-40a7-b437-8ace363075fd-km-25-gegen" to="1cbb0" priority="-1" spreadType="center" bidi="075fd-0">
        <lane id="075fd-0-re_0" index="0" allow="rail rail_electric" speed="110.00" length="25.00" shape="4288.22,7747.81 4307.38,7763.69"/>
    </edge>
    <edge id="075fd-1" from="69d2444f-2ddf-40a7-b437-8ace363075fd-km-25-gegen" to="69d2444f-2ddf-40a7-b437-8ace363075fd-km-45-in" priority="-1" spreadType="center" bidi="075fd-1-re">
        <lane id="075fd-1_0" index="0" allow="rail rail_electric" speed="110.00" length="20.00" shape="4288.22,7747.81 4272.82,7735.05"/>
    </edge>
    <edge id="075fd-1-re" from="69d2444f-2ddf-40a7-b437-8ace363075fd-km-45-in" to="69d2444f-2ddf-40a7-b437-8ace363075fd-km-25-gegen" priority="-1" spreadType="center" bidi="075fd-1">
        <lane id="075fd-1-re_0" index="0" allow="rail rail_electric" speed="110.00" length="20.00" shape="4272.82,7735.05 4288.22,7747.81"/>
    </edge>
    <edge id="075fd-2" from="69d2444f-2ddf-40a7-b437-8ace363075fd-km-45-in" to="c133f" priority="-1" spreadType="center" shape="4272.82,7735.05 4258.16,7722.90 4243.05,7704.73 4233.10,7686.64 4223.08,7664.95 4215.93,7627.90 4215.23,7624.11 4213.97,7617.48 4162.33,7344.22 4162.11,7343.03 4156.18,7311.68 4134.60,7195.56" bidi="075fd-2-re">
        <lane id="075fd-2_0" index="0" allow="rail rail_electric" speed="110.00" length="564.87" shape="4272.82,7735.05 4258.16,7722.90 4243.05,7704.73 4233.10,7686.64 4223.08,7664.95 4215.93,7627.90 4215.23,7624.11 4213.97,7617.48 4162.33,7344.22 4162.11,7343.03 4156.18,7311.68 4134.60,7195.56"/>
    </edge>
    <edge id="075fd-2-re" from="c133f" to="69d2444f-2ddf-40a7-b437-8ace363075fd-km-45-in" priority="-1" spreadType="center" shape="4134.60,7195.56 4156.18,7311.68 4162.11,7343.03 4162.33,7344.22 4213.97,7617.48 4215.23,7624.11 4215.93,7627.90 4223.08,7664.95 4233.10,7686.64 4243.05,7704.73 4258.16,7722.90 4272.82,7735.05" bidi="075fd-2">
        <lane id="075fd-2-re_0" index="0" allow="rail rail_electric" speed="110.00" length="564.87" shape="4134.60,7195.56 4156.18,7311.68 4162.11,7343.03 4162.33,7344.22 4213.97,7617.48 4215.23,7624.11 4215.93,7627.90 4223.08,7664.95 4233.10,7686.64 4243.05,7704.73 4258.16,7722.90 4272.82,7735.05"/>
    </edge>
    <edge id="07ec9-0" from="8d150" to="997dbead-67bd-45fe-8066-a46470707ec9-km-25-gegen" priority="-1" spreadType="center" bidi="07ec9-0-re">
        <lane id="07ec9-0_0" index="0" allow="rail rail_electric" speed="110.00" length="25.00" shape="8971.65,6000.89 8971.43,6025.89"/>
    </edge>
    <edge id="07ec9-0-re" from="997dbead-67bd-45fe-8066-a46470707ec9-km-25-gegen" to="8d150" priority="-1" spreadType="center" bidi="07ec9-0">
        <lane id="07ec9-0-re_0" index="0" allow="rail rail_electric" speed="110.00" length="25.00" shape="8971.43,6025.89 8971.65,6000.89"/>
    </edge>
    <edge id="07ec9-1" from="997dbead-67bd-45fe-8066-a46470707ec9-km-25-gegen" to="997dbead-67bd-45fe-8066-a46470707ec9-km-45-in" priority="-1" spreadType="center" bidi="07ec9-1-re">
        <lane id="07ec9-1_0" index="0" allow="rail rail_electric" speed="110.00" length="20.00" shape="8971.43,6025.89 8971.25,6045.89"/>
    </edge>
    <edge id="07ec9-1-re" from="997dbead-67bd-45fe-8066-a46470707ec9-km-45-in" to="997dbead-67bd-45fe-8066-a46470707ec9-km-25-gegen" priority="-1" spreadType="center" bidi="07ec9-1">
        <lane id="07ec9-1-re_0" index="0" allow="rail rail_electric" speed="110.00" length="20.00" shape="8971.25,6045.89 8971.43,6025.89"/>
    </edge>
    <edge id="07ec9-2" from="997dbead-67bd-45fe-8066-a46470707ec9-km-45-in" to="997dbead-67bd-45fe-8066-a46470707ec9-km-184.60970623926846-gegen" priority="-1" spreadType="center" shape="8971.25,6045.89 8970.92,6083.78 8962.44,6119.43 8938.70,6172.70 8935.07,6178.40" bidi="07ec9-2-re">
        <lane id="07ec9-2_0" index="0" allow="rail rail_electric" speed="110.00" length="139.61" shape="8971.25,6045.89 8970.92,6083.78 8962.44,6119.43 8938.70,6172.70 8935.07,6178.40"/>
    </edge>
    <edge id="07ec9-2-re" from="997dbead-67bd-45fe-8066-a46470707ec9-km-184.60970623926846-gegen" to="997dbead-67bd-45fe-8066-a46470707ec9-km-45-in" priority="-1" spreadType="center" shape="8935.07,6178.40 8938.70,6172.70 8962.44,6119.43 8970.92,6083.78 8971.25,6045.89" bidi="07ec9-2">
        <lane id="07ec9-2-re_0" index="0" allow="rail rail_electric" speed="110.00" length="139.61" shape="8935.07,6178.40 8938.70,6172.70 8962.44,6119.43 8970.92,6083.78 8971.25,6045.89"/>
    </edge>
    <edge id="07ec9-3" from="997dbead-67bd-45fe-8066-a46470707ec9-km-184.60970623926846-gegen" to="997dbead-67bd-45fe-8066-a46470707ec9-km-204.60970623926846-in" priority="-1" spreadType="center" bidi="07ec9-3-re">
        <lane id="07ec9-3_0" index="0" allow="rail rail_electric" speed="110.00" length="20.00" shape="8935.07,6178.40 8924.33,6195.27"/>
    </edge>
    <edge id="07ec9-3-re" from="997dbead-67bd-45fe-8066-a46470707ec9-km-204.60970623926846-in" to="997dbead-67bd-45fe-8066-a46470707ec9-km-184.60970623926846-gegen" priority="-1" spreadType="center" bidi="07ec9-3">
        <lane id="07ec9-3-re_0" index="0" allow="rail rail_electric" speed="110.00" length="20.00" shape="8924.33,6195.27 8935.07,6178.40"/>
    </edge>
    <edge id="07ec9-4" from="997dbead-67bd-45fe-8066-a46470707ec9-km-204.60970623926846-in" to="27070" priority="-1" spreadType="center" shape="8924.33,6195.27 8916.26,6207.94 8910.49,6216.08" bidi="07ec9-4-re">
        <lane id="07ec9-4_0" index="0" allow="rail rail_electric" speed="110.00" length="25.00" shape="8924.33,6195.27 8916.26,6207.94 8910.49,6216.08"/>
    </edge>
    <edge id="07ec9-4-re" from="27070" to="997dbead-67bd-45fe-8066-a46470707ec9-km-204.60970623926846-in" priority="-1" spreadType="center" shape="8910.49,6216.08 8916.26,6207.94 8924.33,6195.27" bidi="07ec9-4">
        <lane id="07ec9-4-re_0" index="0" allow="rail rail_electric" speed="110.00" length="25.00" shape="8910.49,6216.08 8916.26,6207.94 8924.33,6195.27"/>
    </edge>
    <edge id="08fa0-0" from="b43db" to="8418d906-44f4-4b01-b837-0e5b74108fa0-km-25-gegen" priority="-1" spreadType="center" bidi="08fa0-0-re">
        <lane id="08fa0-0_0" index="0" allow="rail rail_electric" speed="110.00" length="25.00" shape="4550.75,7424.23 4550.38,7399.36"/>
    </edge>
    <edge id="08fa0-0-re" from="8418d906-44f4-4b01-b837-0e5b74108fa0-km-25-gegen" to="b43db" priority="-1" spreadType="center" bidi="08fa0-0">
        <lane id="08fa0-0-re_0" index="0" allow="rail rail_electric" speed="110.00" length="25.00" shape="4550.38,7399.36 4550.75,7424.23"/>
    </edge>
    <edge id="08fa0-1" from="8418d906-44f4-4b01-b837-0e5b74108fa0-km-25-gegen" to="8418d906-44f4-4b01-b837-0e5b74108fa0-km-45-in" priority="-1" spreadType="center" bidi="08fa0-1-re">
        <lane id="08fa0-1_0" index="0" allow="rail rail_electric" speed="110.00" length="20.00" shape="4550.38,7399.36 4550.08,7379.37"/>
    </edge>
    <edge id="08fa0-1-re" from="8418d906-44f4-4b01-b837-0e5b74108fa0-km-45-in" to="8418d906-44f4-4b01-b837-0e5b74108fa0-km-25-gegen" priority="-1" spreadType="center" bidi="08fa0-1">
        <lane id="08fa0-1-re_0" index="0" allow="rail rail_electric" speed="110.00" length="20.00" shape="4550.08,7379.37 4550.38,7399.36"/>
    </edge>
    <edge id="08fa0-2" from="8418d906-44f4-4b01-b837-0e5b74108fa0-km-45-in" to="76be9" priority="-1" spreadType="center" shape="4550.08,7379.37 4550.05,7377.37 4555.21,7339.12 4558.16,7304.13 4551.80,7264.98 4519.40,7098.87 4511.92,7060.10 4508.75,7043.80 4494.10,6968.55" bidi="08fa0-2-re">
        <lane id="08fa0-2_0" index="0" allow="rail rail_electric" speed="110.00" length="417.37" shape="4550.08,7379.37 4550.05,7377.37 4555.21,7339.12 4558.16,7304.13 4551.80,7264.98 4519.40,7098.87 4511.92,7060.10 4508.75,7043.80 4494.10,6968.55"/>
    </edge>
    <edge id="08fa0-2-re" from="76be9" to="8418d906-44f4-4b01-b837-0e5b74108fa0-km-45-in" priority="-1" spreadType="center" shape="4494.10,6968.55 4508.75,7043.80 4511.92,7060.10 4519.40,7098.87 4551.80,7264.98 4558.16,7304.13 4555.21,7339.12 4550.05,7377.37 4550.08,7379.37" bidi="08fa0-2">
        <lane id="08fa0-2-re_0" index="0" allow="rail rail_electric" speed="110.00" length="417.37" shape="4494.10,6968.55 4508.75,7043.80 4511.92,7060.10 4519.40,7098.87 4551.80,7264.98 4558.16,7304.13 4555.21,7339.12 4550.05,7377.37 4550.08,7379.37"/>
    </edge>
    <edge id="097c2-0" from="b98a4" to="a8d9862b-f651-4ef1-936b-7fadad2097c2-km-25-gegen" priority="-1" spreadType="center" bidi="097c2-0-re">
        <lane id="097c2-0_0" index="0" allow="rail rail_electric" speed="110.00" length="25.00" shape="3477.05,8120.19 3501.78,8116.49"/>
    </edge>
    <edge id="097c2-0-re" from="a8d9862b-f651-4ef1-936b-7fadad2097c2-km-25-gegen" to="b98a4" priority="-1" spreadType="center" bidi="097c2-0">
        <lane id="097c2-0-re_0" index="0" allow="rail rail_electric" speed="110.00" length="25.00" shape="3501.78,8116.49 3477.05,8120.19"/>
    </edge>
    <edge id="097c2-1" from="a8d9862b-f651-4ef1-936b-7fadad2097c2-km-25-gegen" to="a8d9862b-f651-4ef1-936b-7fadad2097c2-km-45-in" priority="-1" spreadType="center" bidi="097c2-1-re">
        <lane id="097c2-1_0" index="0" allow="rail rail_electric" speed="110.00" length="20.00" shape="3501.78,8116.49 3521.56,8113.54"/>
    </edge>
    <edge id="097c2-1-re" from="a8d9862b-f651-4ef1-936b-7fadad2097c2-km-45-in" to="a8d9862b-f651-4ef1-936b-7fadad2097c2-km-25-gegen" priority="-1" spreadType="center" bidi="097c2-1">
        <lane id="097c2-1-re_0" index="0" allow="rail rail_electric" speed="110.00" length="20.00" shape="3521.56,8113.54 3501.78,8116.49"/>
    </edge>
    <edge id="097c2-2" from="a8d9862b-f651-4ef1-936b-7fadad2097c2-km-45-in" to="a8d9862b-f651-4ef1-936b-7fadad2097c2-km-116.72691529462978-gegen" priority="-1" spreadType="center" shape="3521.56,8113.54 3589.51,8103.38 3592.49,8102.86" bidi="097c2-2-re">
        <lane id="097c2-2_0" index="0" allow="rail rail_electric" speed="110.00" length="71.73" shape="3521.56,8113.54 3589.51,8103.38 3592.49,8102.86"/>
    </edge>
    <edge id="097c2-2-re" from="a8d9862b-f651-4ef1-936b-7fadad2097c2-km-116.72691529462978-gegen" to="a8d9862b-f651-4ef1-936b-7fadad2097c2-km-45-in" priority="-1" spreadType="center" shape="3592.49,8102.86 3589.51,8103.38 3521.56,8113.54" bidi="097c2-2">
        <lane id="097c2-2-re_0" index="0" allow="rail rail_electric" speed="110.00" length="71.73" shape="3592.49,8102.86 3589.51,8103.38 3521.56,8113.54"/>
    </edge>
    <edge id="097c2-3" from="a8d9862b-f651-4ef1-936b-7fadad2097c2-km-116.72691529462978-gegen" to="a8d9862b-f651-4ef1-936b-7fadad2097c2-km-136.72691529462978-in" priority="-1" spreadType="center" bidi="097c2-3-re">
        <lane id="097c2-3_0" index="0" allow="rail rail_electric" speed="110.00" length="20.00" shape="3592.49,8102.86 3612.19,8099.40"/>
    </edge>
    <edge id="097c2-3-re" from="a8d9862b-f651-4ef1-936b-7fadad2097c2-km-136.72691529462978-in" to="a8d9862b-f651-4ef1-936b-7fadad2097c2-km-116.72691529462978-gegen" priority="-1" spreadType="center" bidi="097c2-3">
        <lane id="097c2-3-re_0" index="0" allow="rail rail_electric" speed="110.00" length="20.00" shape="3612.19,8099.40 3592.49,8102.86"/>
    </edge>
    <edge id="097c2-4" from="a8d9862b-f651-4ef1-936b-7fadad2097c2-km-136.72691529462978-in" to="bb774" priority="-1" spreadType="center" bidi="097c2-4-re">
        <lane id="097c2-4_0" index="0" allow="rail rail_electric" speed="110.00" length="25.00" shape="3612.19,8099.40 3636.81,8095.09"/>
    </edge>
    <edge id="097c2-4-re" from="bb774" to="a8d9862b-f651-4ef1-936b-7fadad2097c2-km-136.72691529462978-in" priority="-1" spreadType="center" bidi="097c2-4">
        <lane id="097c2-4-re_0" index="0" allow="rail rail_electric" speed="110.00" length="25.00" shape="3636.81,8095.09 3612.19,8099.40"/>
    </edge>
    <edge id="0a1cf-0" from="5b2f3" to="14cb27cc-99db-4e19-91b4-f6b920b0a1cf-km-511.8359219220923-gegen" priority="-1" spreadType="center" bidi="0a1cf-0-re">
        <lane id="0a1cf-0_0" index="0" allow="rail rail_electric" speed="110.00" length="511.84" shape="5885.87,6267.26 6387.87,6167.42"/>
    </edge>
    <edge id="0a1cf-0-re" from="14cb27cc-99db-4e19-91b4-f6b920b0a1cf-km-511.8359219220923-gegen" to="5b2f3" priority="-1" spreadType="center" bidi="0a1cf-0">
        <lane id="0a1cf-0-re_0" index="0" allow="rail rail_electric" speed="110.00" length="511.84" shape="6387.87,6167.42 5885.87,6267.26"/>
    </edge>
    <edge id="0a1cf-1" from="14cb27cc-99db-4e19-91b4-f6b920b0a1cf-km-511.8359219220923-gegen" to="14cb27cc-99db-4e19-91b4-f6b920b0a1cf-km-531.8359219220923-in" priority="-1" spreadType="center" bidi="0a1cf-1-re">
        <lane id="0a1cf-1_0" index="0" allow="rail rail_electric" speed="110.00" length="20.00" shape="6387.87,6167.42 6407.49,6163.52"/>
    </edge>
    <edge id="0a1cf-1-re" from="14cb27cc-99db-4e19-91b4-f6b920b0a1cf-km-531.8359219220923-in" to="14cb27cc-99db-4e19-91b4-f6b920b0a1cf-km-511.8359219220923-gegen" priority="-1" spreadType="center" bidi="0a1cf-1">
        <lane id="0a1cf-1-re_0" index="0" allow="rail rail_electric" speed="110.00" length="20.00" shape="6407.49,6163.52 6387.87,6167.42"/>
    </edge>
    <edge id="0a1cf-2" from="14cb27cc-99db-4e19-91b4-f6b920b0a1cf-km-531.8359219220923-in" to="cd5ff" priority="-1" spreadType="center" bidi="0a1cf-2-re">
        <lane id="0a1cf-2_0" index="0" allow="rail rail_electric" speed="110.00" length="25.00" shape="6407.49,6163.52 6432.01,6158.64"/>
    </edge>
    <edge id="0a1cf-2-re" from="cd5ff" to="14cb27cc-99db-4e19-91b4-f6b920b0a1cf-km-531.8359219220923-in" priority="-1" spreadType="center" bidi="0a1cf-2">
        <lane id="0a1cf-2-re_0" index="0" allow="rail rail_electric" speed="110.00" length="25.00" shape="6432.01,6158.64 6407.49,6163.52"/>
    </edge>
    <edge id="0abd8-0" from="2caa4" to="f7e5eb05-4523-49d3-959e-1d7e4dc0abd8-km-25-gegen" priority="-1" spreadType="center" bidi="0abd8-0-re">
        <lane id="0abd8-0_0" index="0" allow="rail rail_electric" speed="110.00" length="25.00" shape="6646.78,6640.99 6622.26,6645.87"/>
    </edge>
    <edge id="0abd8-0-re" from="f7e5eb05-4523-49d3-959e-1d7e4dc0abd8-km-25-gegen" to="2caa4" priority="-1" spreadType="center" bidi="0abd8-0">
        <lane id="0abd8-0-re_0" index="0" allow="rail rail_electric" speed="110.00" length="25.00" shape="6622.26,6645.87 6646.78,6640.99"/>
    </edge>
    <edge id="0abd8-1" from="f7e5eb05-4523-49d3-959e-1d7e4dc0abd8-km-25-gegen" to="f7e5eb05-4523-49d3-959e-1d7e4dc0abd8-km-45-in" priority="-1" spreadType="center" bidi="0abd8-1-re">
        <lane id="0abd8-1_0" index="0" allow="rail rail_electric" speed="110.00" length="20.00" shape="6622.26,6645.87 6602.65,6649.78"/>
    </edge>
    <edge id="0abd8-1-re" from="f7e5eb05-4523-49d3-959e-1d7e4dc0abd8-km-45-in" to="f7e5eb05-4523-49d3-959e-1d7e4dc0abd8-km-25-gegen" priority="-1" spreadType="center" bidi="0abd8-1">
        <lane id="0abd8-1-re_0" index="0" allow="rail rail_electric" speed="110.00" length="20.00" shape="6602.65,6649.78 6622.26,6645.87"/>
    </edge>
    <edge id="0abd8-2" from="f7e5eb05-4523-49d3-959e-1d7e4dc0abd8-km-45-in" to="bb4ef" priority="-1" spreadType="center" bidi="0abd8-2-re">
        <lane id="0abd8-2_0" index="0" allow="rail rail_electric" speed="110.00" length="223.48" shape="6602.65,6649.78 6383.48,6693.43"/>
    </edge>
    <edge id="0abd8-2-re" from="bb4ef" to="f7e5eb05-4523-49d3-959e-1d7e4dc0abd8-km-45-in" priority="-1" spreadType="center" bidi="0abd8-2">
        <lane id="0abd8-2-re_0" index="0" allow="rail rail_electric" speed="110.00" length="223.48" shape="6383.48,6693.43 6602.65,6649.78"/>
    </edge>
    <edge id="0c42b-0" from="42647" to="1d3099be-c660-4752-a649-8e127580c42b-km-25-gegen" priority="-1" spreadType="center" bidi="0c42b-0-re">
        <lane id="0c42b-0_0" index="0" allow="rail rail_electric" speed="110.00" length="25.00" shape="3478.32,5917.78 3502.78,5912.61"/>
    </edge>
    <edge id="0c42b-0-re" from="1d3099be-c660-4752-a649-8e127580c42b-km-25-gegen" to="42647" priority="-1" spreadType="center" bidi="0c42b-0">
        <lane id="0c42b-0-re_0" index="0" allow="rail rail_electric" speed="110.00" length="25.00" shape="3502.78,5912.61 3478.32,5917.78"/>
    </edge>
    <edge id="0c42b-1" from="1d3099be-c660-4752-a649-8e127580c42b-km-25-gegen" to="1d3099be-c660-4752-a649-8e127580c42b-km-45-in" priority="-1" spreadType="center" bidi="0c42b-1-re">