<?xml version="1.0" encoding="UTF-8"?>
<routes xmlns:xsi="http://www.w3.org/2001/XMLSchema-instance" xsi:noNamespaceSchemaLocation="http://sumo.dlr.de/xsd/routes_file.xsd">
	<route edges="2c518-1 2c518-2 e1d67-2-re e1d67-1-re" color="62,228,124" id="route_F969BF7D-A87F-4828-AAF1-3BE54F22C518-KM-321.5762856547864-IN-0974066F-0BE2-4C0B-9109-FD973A8E1D67-KM-25-GEGEN"/>
	<route edges="2c518-1 2c518-2 0c884-2-re 0c884-1-re" color="165,222,118" id="route_F969BF7D-A87F-4828-AAF1-3BE54F22C518-KM-321.5762856547864-IN-1586E706-89FE-4643-B2A2-CF9B9CA0C884-KM-25-GEGEN"/>
	<route edges="2c518-1-re 2c518-0-re 495a8-0 495a8-1" color="233,116,131" id="route_F969BF7D-A87F-4828-AAF1-3BE54F22C518-KM-25-GEGEN-ADF2EC5B-C7BE-4343-9A68-B9EC3FE495A8-KM-852.2588211144425-IN"/>
	<route edges="2c518-1-re 2c518-0-re 60cd5-0 60cd5-1" color="16,228,184" id="route_F969BF7D-A87F-4828-AAF1-3BE54F22C518-KM-25-GEGEN-0AEC03F2-F8B9-4658-91D0-A1F640360CD5-KM-165.5616561823125-IN"/>
	<route edges="60cd5-1 60cd5-2 99fff-0 99fff-1" color="98,255,67" id="route_0AEC03F2-F8B9-4658-91D0-A1F640360CD5-KM-165.5616561823125-IN-9D3ABA5E-D032-4A93-BF38-7513CDC99FFF-KM-788.1457216628645-IN"/>
	<route edges="60cd5-1 60cd5-2 edaa3-0 edaa3-1" color="119,147,134" id="route_0AEC03F2-F8B9-4658-91D0-A1F640360CD5-KM-165.5616561823125-IN-061D91A5-8AC7-4674-8703-83EE3E7EDAA3-KM-238.52550007798908-IN"/>
	<route edges="60cd5-1-re 60cd5-0-re 2c518-0 2c518-1" color="245,202,244" id="route_0AEC03F2-F8B9-4658-91D0-A1F640360CD5-KM-25-GEGEN-F969BF7D-A87F-4828-AAF1-3BE54F22C518-KM-321.5762856547864-IN"/>
	<route edges="495a8-1-re 495a8-0-re 2c518-0 2c518-1" color="112,248,241" id="route_ADF2EC5B-C7BE-4343-9A68-B9EC3FE495A8-KM-25-GEGEN-F969BF7D-A87F-4828-AAF1-3BE54F22C518-KM-321.5762856547864-IN"/>
	<route edges="99fff-1 99fff-2 58001-0 58001-1" color="59,197,207" id="route_9D3ABA5E-D032-4A93-BF38-7513CDC99FFF-KM-788.1457216628645-IN-B2654281-5581-4A06-9F85-0DE96B858001-KM-169.7673894741766-IN"/>
	<route edges="99fff-1-re 99fff-0-re 60cd5-2-re 60cd5-1-re" color="39,246,100" id="route_9D3ABA5E-D032-4A93-BF38-7513CDC99FFF-KM-25-GEGEN-0AEC03F2-F8B9-4658-91D0-A1F640360CD5-KM-25-GEGEN"/>
	<route edges="edaa3-1 edaa3-2 1eb7b-0 6d0f8-2-re 6d0f8-1-re" color="40,194,140" id="route_061D91A5-8AC7-4674-8703-83EE3E7EDAA3-KM-238.52550007798908-IN-BC71A0B4-3A0D-48E3-B068-6A939106D0F8-KM-25-GEGEN"/>
	<route edges="edaa3-1 edaa3-2 1eb7b-0 5c5d2-2-re 5c5d2-1-re" color="242,203,33" id="route_061D91A5-8AC7-4674-8703-83EE3E7EDAA3-KM-238.52550007798908-IN-595E1F1A-647E-4404-A7D4-E91C4065C5D2-KM-25-GEGEN"/>
	<route edges="edaa3-1-re edaa3-0-re 60cd5-2-re 60cd5-1-re" color="211,216,91" id="route_061D91A5-8AC7-4674-8703-83EE3E7EDAA3-KM-25-GEGEN-0AEC03F2-F8B9-4658-91D0-A1F640360CD5-KM-25-GEGEN"/>
	<route edges="58001-1 58001-2 a2d3a-0 a2d3a-1" color="159,96,194" id="route_B2654281-5581-4A06-9F85-0DE96B858001-KM-169.7673894741766-IN-8D105DED-175C-4C7B-8D68-924EE9AA2D3A-KM-684.7733628877847-IN"/>
	<route edges="58001-1-re 58001-0-re 99fff-2-re 99fff-1-re" color="101,172,241" id="route_B2654281-5581-4A06-9F85-0DE96B858001-KM-25-GEGEN-9D3ABA5E-D032-4A93-BF38-7513CDC99FFF-KM-25-GEGEN"/>
	<route edges="1960e-1-re 1960e-0-re 58001-0 58001-1" color="105,36,227" id="route_F08977D7-573E-4BD5-9A06-6E86ADB1960E-KM-25-GEGEN-B2654281-5581-4A06-9F85-0DE96B858001-KM-169.7673894741766-IN"/>
	<route edges="a2d3a-1 a2d3a-2 4932f-0-re 4b0c2-0 4b0c2-1" color="17,65,1" id="route_8D105DED-175C-4C7B-8D68-924EE9AA2D3A-KM-684.7733628877847-IN-8AF00479-85D2-4159-83E9-34A1E6E4B0C2-KM-1671.7895552905081-IN"/>
	<route edges="a2d3a-1 a2d3a-2 4932f-0-re c7cdd-0 c7cdd-1" color="200,176,96" id="route_8D105DED-175C-4C7B-8D68-924EE9AA2D3A-KM-684.7733628877847-IN-399A9A5C-A8F1-4676-A99D-A1847A3C7CDD-KM-1452.8979874733736-IN"/>
	<route edges="a2d3a-1 a2d3a-2 458e6-0 458e6-1" color="250,186,10" id="route_8D105DED-175C-4C7B-8D68-924EE9AA2D3A-KM-684.7733628877847-IN-3DC787BC-4B39-4D5C-9C33-C1AC319458E6-KM-268.8995167296298-IN"/>
	<route edges="a2d3a-1-re a2d3a-0-re 58001-2-re 58001-1-re" color="2,137,142" id="route_8D105DED-175C-4C7B-8D68-924EE9AA2D3A-KM-25-GEGEN-B2654281-5581-4A06-9F85-0DE96B858001-KM-25-GEGEN"/>
	<route edges="899ec-1-re 899ec-0-re a2d3a-0 a2d3a-1" color="166,167,254" id="route_1B7D851E-5776-48DC-828F-9809C55899EC-KM-25-GEGEN-8D105DED-175C-4C7B-8D68-924EE9AA2D3A-KM-684.7733628877847-IN"/>
	<route edges="b615e-1 b615e-2 828b5-0 828b5-1" color="56,243,93" id="route_2E169E42-1602-42D2-B0F4-0B73294B615E-KM-254.45431792963808-IN-EF7E1DDA-614A-43A3-A5A4-10CD6F0828B5-KM-1908.0650690078241-IN"/>
	<route edges="b615e-1-re b615e-0-re 462c2-0 2b5a4-2-re 2b5a4-1-re" color="60,177,216" id="route_2E169E42-1602-42D2-B0F4-0B73294B615E-KM-25-GEGEN-3096D11E-5094-4402-BFC5-37D3E782B5A4-KM-25-GEGEN"/>
	<route edges="b615e-1-re b615e-0-re 462c2-0 4b0c2-2-re 4b0c2-1-re" color="121,15,100" id="route_2E169E42-1602-42D2-B0F4-0B73294B615E-KM-25-GEGEN-8AF00479-85D2-4159-83E9-34A1E6E4B0C2-KM-25-GEGEN"/>
	<route edges="42246-1 42246-2 42246-3" color="17,169,203" id="route_6DA98472-F6D5-450D-AF0D-1E02BEA42246-KM-1000-IN-6DA98472-F6D5-450D-AF0D-1E02BEA42246-KM-2000-IN"/>
	<route edges="42246-3 42246-4 42246-5" color="129,126,223" id="route_6DA98472-F6D5-450D-AF0D-1E02BEA42246-KM-2000-IN-6DA98472-F6D5-450D-AF0D-1E02BEA42246-KM-3000-IN"/>
	<route edges="42246-5 42246-6 42246-7" color="252,244,75" id="route_6DA98472-F6D5-450D-AF0D-1E02BEA42246-KM-3000-IN-6DA98472-F6D5-450D-AF0D-1E02BEA42246-KM-4000-IN"/>
	<route edges="42246-7 42246-8 42246-9" color="41,102,126" id="route_6DA98472-F6D5-450D-AF0D-1E02BEA42246-KM-4000-IN-6DA98472-F6D5-450D-AF0D-1E02BEA42246-KM-5560.253303703657-IN"/>
	<route edges="42246-9 42246-10 fd8d3-5-re fd8d3-4-re" color="143,239,100" id="route_6DA98472-F6D5-450D-AF0D-1E02BEA42246-KM-5560.253303703657-IN-29D38FBB-6CA0-4BFF-92FD-2F86AEAFD8D3-KM-1001-GEGEN"/>
	<route edges="42246-9 42246-10 0705d-2-re 0705d-1-re" color="212,3,87" id="route_6DA98472-F6D5-450D-AF0D-1E02BEA42246-KM-5560.253303703657-IN-5EE47F25-6E27-4AF6-BF62-A7674E80705D-KM-25-GEGEN"/>
	<route edges="42246-9-re 42246-8-re 42246-7-re" color="246,186,87" id="route_6DA98472-F6D5-450D-AF0D-1E02BEA42246-KM-4000-GEGEN-6DA98472-F6D5-450D-AF0D-1E02BEA42246-KM-3000-GEGEN"/>
	<route edges="42246-7-re 42246-6-re 42246-5-re" color="36,229,67" id="route_6DA98472-F6D5-450D-AF0D-1E02BEA42246-KM-3000-GEGEN-6DA98472-F6D5-450D-AF0D-1E02BEA42246-KM-2000-GEGEN"/>
	<route edges="42246-5-re 42246-4-re 42246-3-re" color="152,156,155" id="route_6DA98472-F6D5-450D-AF0D-1E02BEA42246-KM-2000-GEGEN-6DA98472-F6D5-450D-AF0D-1E02BEA42246-KM-1000-GEGEN"/>
	<route edges="42246-3-re 42246-2-re 42246-1-re" color="196,86,96" id="route_6DA98472-F6D5-450D-AF0D-1E02BEA42246-KM-1000-GEGEN-6DA98472-F6D5-450D-AF0D-1E02BEA42246-KM-25-GEGEN"/>
	<route edges="42246-1-re 42246-0-re 462c2-0 2b5a4-2-re 2b5a4-1-re" color="85,127,7" id="route_6DA98472-F6D5-450D-AF0D-1E02BEA42246-KM-25-GEGEN-3096D11E-5094-4402-BFC5-37D3E782B5A4-KM-25-GEGEN"/>
	<route edges="42246-1-re 42246-0-re 462c2-0 4b0c2-2-re 4b0c2-1-re" color="101,243,212" id="route_6DA98472-F6D5-450D-AF0D-1E02BEA42246-KM-25-GEGEN-8AF00479-85D2-4159-83E9-34A1E6E4B0C2-KM-25-GEGEN"/>
	<route edges="8e56b-1 8e56b-2 dc3a3-0-re 39331-2-re 39331-1-re" color="38,237,24" id="route_A034AAF5-AD4B-495B-8410-126871B8E56B-KM-463.81731618508263-IN-5DB5C0CC-06F5-435F-9860-E48709F39331-KM-25-GEGEN"/>
	<route edges="8e56b-1 8e56b-2 dc3a3-0-re c7cdd-2-re c7cdd-1-re" color="186,47,97" id="route_A034AAF5-AD4B-495B-8410-126871B8E56B-KM-463.81731618508263-IN-399A9A5C-A8F1-4676-A99D-A1847A3C7CDD-KM-25-GEGEN"/>
	<route edges="8e56b-1-re 8e56b-0-re 828b5-0 828b5-1" color="118,248,108" id="route_A034AAF5-AD4B-495B-8410-126871B8E56B-KM-25-GEGEN-EF7E1DDA-614A-43A3-A5A4-10CD6F0828B5-KM-1908.0650690078241-IN"/>
	<route edges="828b5-1 828b5-2 67137-0 67137-1" color="48,28,210" id="route_EF7E1DDA-614A-43A3-A5A4-10CD6F0828B5-KM-1908.0650690078241-IN-EF2E9D5E-369D-4398-90A0-AF7488767137-KM-164.87032984724672-IN"/>
	<route edges="828b5-1 828b5-2 8d185-0 4fc6e-0 2f160-0-re 25c3b-0 6845c-0 6845c-1" color="45,170,181" id="route_EF7E1DDA-614A-43A3-A5A4-10CD6F0828B5-KM-1908.0650690078241-IN-711AF67C-2251-4573-BC05-48244636845C-KM-181.66400492600528-IN"/>
	<route edges="828b5-1 828b5-2 8d185-0 4fc6e-0 2f160-0-re 25c3b-0 dd0f7-0 dd0f7-1" color="174,50,133" id="route_EF7E1DDA-614A-43A3-A5A4-10CD6F0828B5-KM-1908.0650690078241-IN-3A8FA5A7-3A35-44FF-B952-2BAD653DD0F7-KM-340.8087986779541-IN"/>
	<route edges="828b5-1 828b5-2 8d185-0 4fc6e-0 117e4-0 117e4-1" color="130,236,189" id="route_EF7E1DDA-614A-43A3-A5A4-10CD6F0828B5-KM-1908.0650690078241-IN-4B340C81-4F3C-4C8D-9FF7-E226D9A117E4-KM-631.7357322698663-IN"/>
	<route edges="828b5-1-re 828b5-0-re 8e56b-0 8e56b-1" color="211,100,181" id="route_EF7E1DDA-614A-43A3-A5A4-10CD6F0828B5-KM-25-GEGEN-A034AAF5-AD4B-495B-8410-126871B8E56B-KM-463.81731618508263-IN"/>
	<route edges="828b5-1-re 828b5-0-re b615e-2-re b615e-1-re" color="109,65,40" id="route_EF7E1DDA-614A-43A3-A5A4-10CD6F0828B5-KM-25-GEGEN-2E169E42-1602-42D2-B0F4-0B73294B615E-KM-25-GEGEN"/>
	<route edges="80aca-1 80aca-2 80aca-3" color="114,95,148" id="route_194162D6-0583-4213-9026-97C61FF80ACA-KM-1000-IN-194162D6-0583-4213-9026-97C61FF80ACA-KM-2968.0134948223827-IN"/>
	<route edges="80aca-3 80aca-4 6c2c9-0 6c2c9-1" color="151,10,133" id="route_194162D6-0583-4213-9026-97C61FF80ACA-KM-2968.0134948223827-IN-9AA5E60D-1FD4-45B5-8452-F4262DF6C2C9-KM-1453.541904487744-IN"/>
	<route edges="80aca-3-re 80aca-2-re 80aca-1-re" color="134,199,67" id="route_194162D6-0583-4213-9026-97C61FF80ACA-KM-1000-GEGEN-194162D6-0583-4213-9026-97C61FF80ACA-KM-25-GEGEN"/>
	<route edges="80aca-1-re 80aca-0-re 6bb18-0 dd0f7-2-re dd0f7-1-re" color="229,57,196" id="route_194162D6-0583-4213-9026-97C61FF80ACA-KM-25-GEGEN-3A8FA5A7-3A35-44FF-B952-2BAD653DD0F7-KM-25-GEGEN"/>
	<route edges="80aca-1-re 80aca-0-re 6bb18-0 d3e31-0 0a292-0-re 99045-0 6845c-2-re 6845c-1-re" color="152,178,105" id="route_194162D6-0583-4213-9026-97C61FF80ACA-KM-25-GEGEN-711AF67C-2251-4573-BC05-48244636845C-KM-25-GEGEN"/>
	<route edges="80aca-1-re 80aca-0-re 6bb18-0 d3e31-0 0a292-0-re 99045-0 bc557-0 a6abc-0 a6abc-1" color="95,24,238" id="route_194162D6-0583-4213-9026-97C61FF80ACA-KM-25-GEGEN-6D26435E-70F7-4E5D-BECD-FF69836A6ABC-KM-893.3775715190525-IN"/>
	<route edges="80aca-1-re 80aca-0-re 6bb18-0 d3e31-0 0a292-0-re 99045-0 bc557-0 6bcbe-0 9d9d6-2-re 9d9d6-1-re" color="207,37,220" id="route_194162D6-0583-4213-9026-97C61FF80ACA-KM-25-GEGEN-3451BFAA-40A2-4CD6-B32D-377F6D59D9D6-KM-25-GEGEN"/>
	<route edges="80aca-1-re 80aca-0-re 6bb18-0 d3e31-0 0a292-0-re 99045-0 bc557-0 6bcbe-0 35c91-0 18274-2-re 18274-1-re" color="32,22,127" id="route_194162D6-0583-4213-9026-97C61FF80ACA-KM-25-GEGEN-1EF787E6-F1AF-4928-BD8A-4F2A87F18274-KM-25-GEGEN"/>
	<route edges="4a8cb-1 4a8cb-2 f786b-2-re f786b-1-re" color="49,95,130" id="route_3361A0A9-44DF-4A66-B85C-6CC0C324A8CB-KM-96.47358751756049-IN-0D904EE4-60E1-4109-B2E9-398F3BDF786B-KM-25-GEGEN"/>
	<route edges="4a8cb-1 4a8cb-2 4677b-0 4677b-1" color="75,148,6" id="route_3361A0A9-44DF-4A66-B85C-6CC0C324A8CB-KM-96.47358751756049-IN-A5F0B0A4-B174-433D-B518-16BA4444677B-KM-914.6100386400316-IN"/>
	<route edges="4a8cb-1-re 4a8cb-0-re 44861-0 44861-1" color="144,197,35" id="route_3361A0A9-44DF-4A66-B85C-6CC0C324A8CB-KM-25-GEGEN-BF81908E-D7C8-4998-B1DA-42D953644861-KM-196.352947606197-IN"/>
	<route edges="44861-1 44861-2 2751d-2-re 2751d-1-re" color="12,100,113" id="route_BF81908E-D7C8-4998-B1DA-42D953644861-KM-196.352947606197-IN-FE1B036C-9D5B-42C8-A435-2EF74AB2751D-KM-25-GEGEN"/>
	<route edges="44861-1 44861-2 d9005-2-re d9005-1-re" color="199,156,149" id="route_BF81908E-D7C8-4998-B1DA-42D953644861-KM-196.352947606197-IN-CFA4A890-18D6-4EF1-8A3C-D9ADBAFD9005-KM-25-GEGEN"/>
	<route edges="44861-1-re 44861-0-re 4a8cb-0 4a8cb-1" color="126,151,185" id="route_BF81908E-D7C8-4998-B1DA-42D953644861-KM-25-GEGEN-3361A0A9-44DF-4A66-B85C-6CC0C324A8CB-KM-96.47358751756049-IN"/>
	<route edges="44861-1-re 44861-0-re 70bdf-0 183b4-0 5e026-0 5e026-1" color="128,243,174" id="route_BF81908E-D7C8-4998-B1DA-42D953644861-KM-25-GEGEN-16A5B6B0-80E0-4948-8076-4DED5DA5E026-KM-103.04561740430805-IN"/>
	<route edges="44861-1-re 44861-0-re 70bdf-0 183b4-0 b15a6-2-re b15a6-1-re" color="225,13,83" id="route_BF81908E-D7C8-4998-B1DA-42D953644861-KM-25-GEGEN-3F2544F3-B00E-45A4-B214-44CEFA4B15A6-KM-25-GEGEN"/>
	<route edges="44861-1-re 44861-0-re 70bdf-0 c9b5d-0 c9b5d-1" color="131,104,227" id="route_BF81908E-D7C8-4998-B1DA-42D953644861-KM-25-GEGEN-AD91D1A0-666D-43EB-8DB3-06E9A02C9B5D-KM-1077.9134160895494-IN"/>
	<route edges="c9b5d-1 c9b5d-2 24d02-0 b6b2a-0 8e099-0 8e099-1" color="80,136,170" id="route_AD91D1A0-666D-43EB-8DB3-06E9A02C9B5D-KM-1077.9134160895494-IN-E1FCB181-147E-4430-B441-B2A80918E099-KM-455.0663329602517-IN"/>
	<route edges="c9b5d-1-re c9b5d-0-re 70bdf-0-re 44861-0 44861-1" color="77,13,145" id="route_AD91D1A0-666D-43EB-8DB3-06E9A02C9B5D-KM-25-GEGEN-BF81908E-D7C8-4998-B1DA-42D953644861-KM-196.352947606197-IN"/>
	<route edges="b15a6-1 b15a6-2 183b4-0-re 70bdf-0-re 44861-0 44861-1" color="99,154,86" id="route_3F2544F3-B00E-45A4-B214-44CEFA4B15A6-KM-1049.2555641663412-IN-BF81908E-D7C8-4998-B1DA-42D953644861-KM-196.352947606197-IN"/>
	<route edges="b15a6-1-re b15a6-0-re b6b2a-0 8e099-0 8e099-1" color="26,200,64" id="route_3F2544F3-B00E-45A4-B214-44CEFA4B15A6-KM-25-GEGEN-E1FCB181-147E-4430-B441-B2A80918E099-KM-455.0663329602517-IN"/>
	<route edges="8e099-1 8e099-2 b9cb8-0 b9cb8-1" color="51,255,235" id="route_E1FCB181-147E-4430-B441-B2A80918E099-KM-455.0663329602517-IN-2C86566B-1C19-49C3-A65F-1A383EFB9CB8-KM-90.49227411094549-IN"/>
	<route edges="8e099-1 8e099-2 cf35c-0 cf35c-1" color="206,113,137" id="route_E1FCB181-147E-4430-B441-B2A80918E099-KM-455.0663329602517-IN-E7335DD1-475F-4AFC-B1BD-1C23625CF35C-KM-79.28485462572691-IN"/>
	<route edges="8e099-1-re 8e099-0-re b6b2a-0-re 24d02-0-re 17e13-0 7d820-2-re 7d820-1-re" color="75,219,9" id="route_E1FCB181-147E-4430-B441-B2A80918E099-KM-25-GEGEN-A14082BE-3BF9-4B9C-A676-A7CA4A47D820-KM-25-GEGEN"/>
	<route edges="8e099-1-re 8e099-0-re b6b2a-0-re 24d02-0-re c9b5d-2-re c9b5d-1-re" color="122,239,109" id="route_E1FCB181-147E-4430-B441-B2A80918E099-KM-25-GEGEN-AD91D1A0-666D-43EB-8DB3-06E9A02C9B5D-KM-25-GEGEN"/>
	<route edges="8e099-1-re 8e099-0-re b6b2a-0-re b15a6-0 b15a6-1" color="236,14,211" id="route_E1FCB181-147E-4430-B441-B2A80918E099-KM-25-GEGEN-3F2544F3-B00E-45A4-B214-44CEFA4B15A6-KM-1049.2555641663412-IN"/>
	<route edges="8e099-1-re 8e099-0-re cc037-0 2d317-2-re 2d317-1-re" color="46,230,110" id="route_E1FCB181-147E-4430-B441-B2A80918E099-KM-25-GEGEN-0B57D7FA-87F5-420E-AB23-700477B2D317-KM-25-GEGEN"/>
	<route edges="8e099-1-re 8e099-0-re cc037-0 05c36-0 d1832-2-re d1832-1-re" color="51,8,124" id="route_E1FCB181-147E-4430-B441-B2A80918E099-KM-25-GEGEN-DF5D06A0-EEB6-4444-80D6-C12156DD1832-KM-25-GEGEN"/>
	<route edges="8e099-1-re 8e099-0-re cc037-0 05c36-0 d1865-0-re af378-0 4677b-2-re 4677b-1-re" color="204,130,105" id="route_E1FCB181-147E-4430-B441-B2A80918E099-KM-25-GEGEN-A5F0B0A4-B174-433D-B518-16BA4444677B-KM-25-GEGEN"/>
	<route edges="8e099-1-re 8e099-0-re cc037-0 05c36-0 d1865-0-re af378-0 f1bba-2-re f1bba-1-re" color="222,142,88" id="route_E1FCB181-147E-4430-B441-B2A80918E099-KM-25-GEGEN-6B139AFC-A599-486F-B33C-30E51A4F1BBA-KM-25-GEGEN"/>
	<route edges="cf35c-1 cf35c-2 264ce-0 264ce-1" color="57,201,244" id="route_E7335DD1-475F-4AFC-B1BD-1C23625CF35C-KM-79.28485462572691-IN-B04C065B-6FA0-4182-9DD0-7CBB064264CE-KM-984.5542787261779-IN"/>
	<route edges="cf35c-1-re cf35c-0-re 8e099-2-re 8e099-1-re" color="89,203,225" id="route_E7335DD1-475F-4AFC-B1BD-1C23625CF35C-KM-25-GEGEN-E1FCB181-147E-4430-B441-B2A80918E099-KM-25-GEGEN"/>
	<route edges="b9cb8-1 b9cb8-2 848cf-0 848cf-1" color="131,191,170" id="route_2C86566B-1C19-49C3-A65F-1A383EFB9CB8-KM-90.49227411094549-IN-785BD393-FB65-41DC-BCC2-675EC5C848CF-KM-973.5630285209269-IN"/>
	<route edges="b9cb8-1-re b9cb8-0-re 8e099-2-re 8e099-1-re" color="188,11,152" id="route_2C86566B-1C19-49C3-A65F-1A383EFB9CB8-KM-25-GEGEN-E1FCB181-147E-4430-B441-B2A80918E099-KM-25-GEGEN"/>
	<route edges="264ce-1 264ce-2 ef9e0-0 ef9e0-1" color="185,137,110" id="route_B04C065B-6FA0-4182-9DD0-7CBB064264CE-KM-984.5542787261779-IN-96B1CF76-4645-468B-B738-D67CCDDEF9E0-KM-81.24463641442591-IN"/>
	<route edges="264ce-1-re 264ce-0-re e0c5d-0 e0c5d-1" color="16,52,50" id="route_B04C065B-6FA0-4182-9DD0-7CBB064264CE-KM-25-GEGEN-1BEC87C4-FBD2-4BD3-BAF8-4E4E412E0C5D-KM-101.34410270980774-IN"/>
	<route edges="264ce-1-re 264ce-0-re cf35c-2-re cf35c-1-re" color="187,42,51" id="route_B04C065B-6FA0-4182-9DD0-7CBB064264CE-KM-25-GEGEN-E7335DD1-475F-4AFC-B1BD-1C23625CF35C-KM-25-GEGEN"/>
	<route edges="e0c5d-1 e0c5d-2 b874d-0 b874d-1" color="53,172,93" id="route_1BEC87C4-FBD2-4BD3-BAF8-4E4E412E0C5D-KM-101.34410270980774-IN-10962762-4D06-4A3C-A605-6812166B874D-KM-173.08552154511705-IN"/>
	<route edges="e0c5d-1-re e0c5d-0-re 264ce-0 264ce-1" color="78,165,34" id="route_1BEC87C4-FBD2-4BD3-BAF8-4E4E412E0C5D-KM-25-GEGEN-B04C065B-6FA0-4182-9DD0-7CBB064264CE-KM-984.5542787261779-IN"/>
	<route edges="0aefb-0 0aefb-1 0aefb-2" color="15,217,214" id="route_BEB91FDF-F05C-4E1F-AFCF-F62D4520AEFB-KM-1-IN-BEB91FDF-F05C-4E1F-AFCF-F62D4520AEFB-KM-1246.872029481161-IN"/>
	<route edges="0aefb-2 0aefb-3 40c41-0 40c41-1" color="14,96,14" id="route_BEB91FDF-F05C-4E1F-AFCF-F62D4520AEFB-KM-1246.872029481161-IN-ABAE00B3-8FF3-4AB7-8857-5B0290D40C41-KM-195.21324611100448-IN"/>
	<route edges="38784-1 38784-2 c12d5-0 e1d67-0 e1d67-1" color="140,130,40" id="route_71922950-3D7E-446E-8800-EF2501B38784-KM-1615.0764173282626-IN-0974066F-0BE2-4C0B-9109-FD973A8E1D67-KM-136.72691529462978-IN"/>
	<route edges="38784-1 38784-2 c12d5-0 77eac-0 77eac-1" color="193,149,162" id="route_71922950-3D7E-446E-8800-EF2501B38784-KM-1615.0764173282626-IN-49A038BB-CECD-4A5A-A47D-687068177EAC-KM-937.1466831358305-IN"/>
	<route edges="38784-1-re 38784-0-re 3d3ce-0 a0e9b-2-re a0e9b-1-re" color="126,129,154" id="route_71922950-3D7E-446E-8800-EF2501B38784-KM-25-GEGEN-A040322D-77D3-4CBA-842E-BD76787A0E9B-KM-25-GEGEN"/>
	<route edges="38784-1-re 38784-0-re 3d3ce-0 bb30b-0-re e9d7e-2-re e9d7e-1-re" color="167,230,74" id="route_71922950-3D7E-446E-8800-EF2501B38784-KM-25-GEGEN-9EDDD986-DCB7-429D-80F4-CBF7B4BE9D7E-KM-25-GEGEN"/>
	<route edges="cbcf5-1 cbcf5-2 cbcf5-3" color="172,236,216" id="route_B880F23B-224D-4628-8654-4A729FDCBCF5-KM-1000-IN-B880F23B-224D-4628-8654-4A729FDCBCF5-KM-2000-IN"/>
	<route edges="cbcf5-3 cbcf5-4 cbcf5-5" color="225,118,204" id="route_B880F23B-224D-4628-8654-4A729FDCBCF5-KM-2000-IN-B880F23B-224D-4628-8654-4A729FDCBCF5-KM-3170.0135601901507-IN"/>
	<route edges="cbcf5-5 cbcf5-6 d774d-0 d774d-1" color="199,137,241" id="route_B880F23B-224D-4628-8654-4A729FDCBCF5-KM-3170.0135601901507-IN-8FD58301-D8BF-4EB1-AEEE-3AA6F2FD774D-KM-1145.0075044737318-IN"/>
	<route edges="cbcf5-5 cbcf5-6 e9127-0 e9127-1" color="45,170,120" id="route_B880F23B-224D-4628-8654-4A729FDCBCF5-KM-3170.0135601901507-IN-D99AC1BA-4BA0-4180-956F-0583757E9127-KM-199.43697602843812-IN"/>
	<route edges="cbcf5-5-re cbcf5-4-re cbcf5-3-re" color="189,36,210" id="route_B880F23B-224D-4628-8654-4A729FDCBCF5-KM-2000-GEGEN-B880F23B-224D-4628-8654-4A729FDCBCF5-KM-1000-GEGEN"/>
	<route edges="cbcf5-3-re cbcf5-2-re cbcf5-1-re" color="182,200,160" id="route_B880F23B-224D-4628-8654-4A729FDCBCF5-KM-1000-GEGEN-B880F23B-224D-4628-8654-4A729FDCBCF5-KM-25-GEGEN"/>
	<route edges="cbcf5-1-re cbcf5-0-re 3d3ce-0 a0e9b-2-re a0e9b-1-re" color="30,196,229" id="route_B880F23B-224D-4628-8654-4A729FDCBCF5-KM-25-GEGEN-A040322D-77D3-4CBA-842E-BD76787A0E9B-KM-25-GEGEN"/>
	<route edges="cbcf5-1-re cbcf5-0-re 3d3ce-0 bb30b-0-re e9d7e-2-re e9d7e-1-re" color="43,90,255" id="route_B880F23B-224D-4628-8654-4A729FDCBCF5-KM-25-GEGEN-9EDDD986-DCB7-429D-80F4-CBF7B4BE9D7E-KM-25-GEGEN"/>
	<route edges="21ed9-1 21ed9-2 98de2-0 98de2-1" color="132,208,48" id="route_0547FA78-AEAB-4C1F-AA9A-B89985F21ED9-KM-152.73211692197054-IN-2E81D854-A865-40BB-AF31-BA1924D98DE2-KM-1000-IN"/>
	<route edges="21ed9-1-re 21ed9-0-re c12d5-0 e1d67-0 e1d67-1" color="221,77,18" id="route_0547FA78-AEAB-4C1F-AA9A-B89985F21ED9-KM-25-GEGEN-0974066F-0BE2-4C0B-9109-FD973A8E1D67-KM-136.72691529462978-IN"/>
	<route edges="21ed9-1-re 21ed9-0-re c12d5-0 77eac-0 77eac-1" color="133,234,209" id="route_0547FA78-AEAB-4C1F-AA9A-B89985F21ED9-KM-25-GEGEN-49A038BB-CECD-4A5A-A47D-687068177EAC-KM-937.1466831358305-IN"/>
	<route edges="77eac-1 77eac-2 1eb7b-0 6d0f8-2-re 6d0f8-1-re" color="85,166,199" id="route_49A038BB-CECD-4A5A-A47D-687068177EAC-KM-937.1466831358305-IN-BC71A0B4-3A0D-48E3-B068-6A939106D0F8-KM-25-GEGEN"/>
	<route edges="77eac-1 77eac-2 1eb7b-0 5c5d2-2-re 5c5d2-1-re" color="139,215,186" id="route_49A038BB-CECD-4A5A-A47D-687068177EAC-KM-937.1466831358305-IN-595E1F1A-647E-4404-A7D4-E91C4065C5D2-KM-25-GEGEN"/>
	<route edges="77eac-1-re 77eac-0-re c12d5-0-re 38784-2-re 38784-1-re" color="136,34,163" id="route_49A038BB-CECD-4A5A-A47D-687068177EAC-KM-25-GEGEN-71922950-3D7E-446E-8800-EF2501B38784-KM-25-GEGEN"/>
	<route edges="77eac-1-re 77eac-0-re c12d5-0-re 21ed9-0 21ed9-1" color="18,140,253" id="route_49A038BB-CECD-4A5A-A47D-687068177EAC-KM-25-GEGEN-0547FA78-AEAB-4C1F-AA9A-B89985F21ED9-KM-152.73211692197054-IN"/>
	<route edges="e1d67-1 e1d67-2 2c518-2-re 2c518-1-re" color="119,254,124" id="route_0974066F-0BE2-4C0B-9109-FD973A8E1D67-KM-136.72691529462978-IN-F969BF7D-A87F-4828-AAF1-3BE54F22C518-KM-25-GEGEN"/>
	<route edges="e1d67-1-re e1d67-0-re c12d5-0-re 38784-2-re 38784-1-re" color="93,123,139" id="route_0974066F-0BE2-4C0B-9109-FD973A8E1D67-KM-25-GEGEN-71922950-3D7E-446E-8800-EF2501B38784-KM-25-GEGEN"/>
	<route edges="e1d67-1-re e1d67-0-re c12d5-0-re 21ed9-0 21ed9-1" color="22,145,109" id="route_0974066F-0BE2-4C0B-9109-FD973A8E1D67-KM-25-GEGEN-0547FA78-AEAB-4C1F-AA9A-B89985F21ED9-KM-152.73211692197054-IN"/>
	<route edges="f8c23-1 f8c23-2 8d751-4-re 8d751-3-re" color="20,156,199" id="route_2EE3785E-5947-475F-9635-E7D489CF8C23-KM-848.6990357234663-IN-CCB47453-B97B-4F98-9648-F4CB57F8D751-KM-1000-GEGEN"/>
	<route edges="f8c23-1-re f8c23-0-re 9bb0d-0 9bb0d-1" color="9,198,37" id="route_2EE3785E-5947-475F-9635-E7D489CF8C23-KM-25-GEGEN-E9DC205F-F849-4FF4-A14A-77EE9699BB0D-KM-1000-IN"/>
	<route edges="9bb0d-1 9bb0d-2 9bb0d-3" color="42,111,209" id="route_E9DC205F-F849-4FF4-A14A-77EE9699BB0D-KM-1000-IN-E9DC205F-F849-4FF4-A14A-77EE9699BB0D-KM-2000-IN"/>
	<route edges="9bb0d-3 9bb0d-4 9bb0d-5" color="236,84,73" id="route_E9DC205F-F849-4FF4-A14A-77EE9699BB0D-KM-2000-IN-E9DC205F-F849-4FF4-A14A-77EE9699BB0D-KM-3000-IN"/>
	<route edges="9bb0d-5 9bb0d-6 9bb0d-7" color="219,37,166" id="route_E9DC205F-F849-4FF4-A14A-77EE9699BB0D-KM-3000-IN-E9DC205F-F849-4FF4-A14A-77EE9699BB0D-KM-4000-IN"/>
	<route edges="9bb0d-7 9bb0d-8 9bb0d-9" color="46,74,43" id="route_E9DC205F-F849-4FF4-A14A-77EE9699BB0D-KM-4000-IN-E9DC205F-F849-4FF4-A14A-77EE9699BB0D-KM-5000-IN"/>
	<route edges="9bb0d-9 9bb0d-10 9bb0d-11" color="180,182,13" id="route_E9DC205F-F849-4FF4-A14A-77EE9699BB0D-KM-5000-IN-E9DC205F-F849-4FF4-A14A-77EE9699BB0D-KM-6000-IN"/>
	<route edges="9bb0d-11 9bb0d-12 9bb0d-13" color="153,66,164" id="route_E9DC205F-F849-4FF4-A14A-77EE9699BB0D-KM-6000-IN-E9DC205F-F849-4FF4-A14A-77EE9699BB0D-KM-7625.423054083232-IN"/>
	<route edges="9bb0d-13 9bb0d-14 17084-0 17084-1" color="6,250,226" id="route_E9DC205F-F849-4FF4-A14A-77EE9699BB0D-KM-7625.423054083232-IN-0364A54B-6CC5-481A-B89B-2089FEE17084-KM-86.42029216853058-IN"/>
	<route edges="9bb0d-13-re 9bb0d-12-re 9bb0d-11-re" color="63,207,63" id="route_E9DC205F-F849-4FF4-A14A-77EE9699BB0D-KM-6000-GEGEN-E9DC205F-F849-4FF4-A14A-77EE9699BB0D-KM-5000-GEGEN"/>
	<route edges="9bb0d-11-re 9bb0d-10-re 9bb0d-9-re" color="156,208,81" id="route_E9DC205F-F849-4FF4-A14A-77EE9699BB0D-KM-5000-GEGEN-E9DC205F-F849-4FF4-A14A-77EE9699BB0D-KM-4000-GEGEN"/>
	<route edges="9bb0d-9-re 9bb0d-8-re 9bb0d-7-re" color="129,168,217" id="route_E9DC205F-F849-4FF4-A14A-77EE9699BB0D-KM-4000-GEGEN-E9DC205F-F849-4FF4-A14A-77EE9699BB0D-KM-3000-GEGEN"/>
	<route edges="9bb0d-7-re 9bb0d-6-re 9bb0d-5-re" color="5,150,245" id="route_E9DC205F-F849-4FF4-A14A-77EE9699BB0D-KM-3000-GEGEN-E9DC205F-F849-4FF4-A14A-77EE9699BB0D-KM-2000-GEGEN"/>
	<route edges="9bb0d-5-re 9bb0d-4-re 9bb0d-3-re" color="123,35,5" id="route_E9DC205F-F849-4FF4-A14A-77EE9699BB0D-KM-2000-GEGEN-E9DC205F-F849-4FF4-A14A-77EE9699BB0D-KM-1000-GEGEN"/>
	<route edges="9bb0d-3-re 9bb0d-2-re 9bb0d-1-re" color="223,218,6" id="route_E9DC205F-F849-4FF4-A14A-77EE9699BB0D-KM-1000-GEGEN-E9DC205F-F849-4FF4-A14A-77EE9699BB0D-KM-25-GEGEN"/>
	<route edges="9bb0d-1-re 9bb0d-0-re 8da80-0 8da80-1" color="198,174,214" id="route_E9DC205F-F849-4FF4-A14A-77EE9699BB0D-KM-25-GEGEN-F175ED3C-7ED5-458C-991E-D02F1708DA80-KM-127.01052255433262-IN"/>
	<route edges="9bb0d-1-re 9bb0d-0-re f8c23-0 f8c23-1" color="20,64,165" id="route_E9DC205F-F849-4FF4-A14A-77EE9699BB0D-KM-25-GEGEN-2EE3785E-5947-475F-9635-E7D489CF8C23-KM-848.6990357234663-IN"/>
	<route edges="8da80-1 8da80-2 40c41-2-re 40c41-1-re" color="29,94,90" id="route_F175ED3C-7ED5-458C-991E-D02F1708DA80-KM-127.01052255433262-IN-ABAE00B3-8FF3-4AB7-8857-5B0290D40C41-KM-25-GEGEN"/>
	<route edges="8da80-1-re 8da80-0-re 9bb0d-0 9bb0d-1" color="172,197,62" id="route_F175ED3C-7ED5-458C-991E-D02F1708DA80-KM-25-GEGEN-E9DC205F-F849-4FF4-A14A-77EE9699BB0D-KM-1000-IN"/>
	<route edges="67137-1 67137-2 25c3b-0 6845c-0 6845c-1" color="43,145,253" id="route_EF2E9D5E-369D-4398-90A0-AF7488767137-KM-164.87032984724672-IN-711AF67C-2251-4573-BC05-48244636845C-KM-181.66400492600528-IN"/>
	<route edges="67137-1 67137-2 25c3b-0 dd0f7-0 dd0f7-1" color="51,15,17" id="route_EF2E9D5E-369D-4398-90A0-AF7488767137-KM-164.87032984724672-IN-3A8FA5A7-3A35-44FF-B952-2BAD653DD0F7-KM-340.8087986779541-IN"/>
	<route edges="67137-1-re 67137-0-re 828b5-2-re 828b5-1-re" color="91,68,170" id="route_EF2E9D5E-369D-4398-90A0-AF7488767137-KM-25-GEGEN-EF7E1DDA-614A-43A3-A5A4-10CD6F0828B5-KM-25-GEGEN"/>
	<route edges="dd0f7-1 dd0f7-2 6bb18-0-re 80aca-0 80aca-1" color="235,251,154" id="route_3A8FA5A7-3A35-44FF-B952-2BAD653DD0F7-KM-340.8087986779541-IN-194162D6-0583-4213-9026-97C61FF80ACA-KM-1000-IN"/>
	<route edges="dd0f7-1 dd0f7-2 6bb18-0-re 55723-0 1f74a-0 1f74a-1" color="171,170,228" id="route_3A8FA5A7-3A35-44FF-B952-2BAD653DD0F7-KM-340.8087986779541-IN-FA40D8E8-FC04-47B1-8C7D-020BE6F1F74A-KM-1000-IN"/>
	<route edges="dd0f7-1-re dd0f7-0-re 25c3b-0-re 2f160-0 4fc6e-0-re 704ba-2-re 704ba-1-re" color="158,173,152" id="route_3A8FA5A7-3A35-44FF-B952-2BAD653DD0F7-KM-25-GEGEN-27FB8DDD-99B7-48F6-A2CA-6D2A7B5704BA-KM-25-GEGEN"/>
	<route edges="dd0f7-1-re dd0f7-0-re 25c3b-0-re 2f160-0 4fc6e-0-re 8d185-0-re 828b5-2-re 828b5-1-re" color="149,48,64" id="route_3A8FA5A7-3A35-44FF-B952-2BAD653DD0F7-KM-25-GEGEN-EF7E1DDA-614A-43A3-A5A4-10CD6F0828B5-KM-25-GEGEN"/>
	<route edges="dd0f7-1-re dd0f7-0-re 25c3b-0-re 67137-2-re 67137-1-re" color="130,215,238" id="route_3A8FA5A7-3A35-44FF-B952-2BAD653DD0F7-KM-25-GEGEN-EF2E9D5E-369D-4398-90A0-AF7488767137-KM-25-GEGEN"/>
	<route edges="6845c-1 6845c-2 99045-0-re 3bfb2-2-re 3bfb2-1-re" color="197,141,185" id="route_711AF67C-2251-4573-BC05-48244636845C-KM-181.66400492600528-IN-B183D9FE-3F80-4396-97AE-9847D723BFB2-KM-25-GEGEN"/>
	<route edges="6845c-1 6845c-2 99045-0-re 0a292-0 95179-4-re 95179-3-re" color="81,193,42" id="route_711AF67C-2251-4573-BC05-48244636845C-KM-181.66400492600528-IN-024C7253-8622-4F9B-829A-6157F7995179-KM-1000-GEGEN"/>
	<route edges="6845c-1 6845c-2 99045-0-re 0a292-0 d3e31-0-re 6bb18-0-re 80aca-0 80aca-1" color="168,80,123" id="route_711AF67C-2251-4573-BC05-48244636845C-KM-181.66400492600528-IN-194162D6-0583-4213-9026-97C61FF80ACA-KM-1000-IN"/>
	<route edges="6845c-1 6845c-2 99045-0-re 0a292-0 d3e31-0-re 6bb18-0-re 55723-0 1f74a-0 1f74a-1" color="113,162,126" id="route_711AF67C-2251-4573-BC05-48244636845C-KM-181.66400492600528-IN-FA40D8E8-FC04-47B1-8C7D-020BE6F1F74A-KM-1000-IN"/>
	<route edges="6845c-1-re 6845c-0-re 25c3b-0-re 2f160-0 4fc6e-0-re 704ba-2-re 704ba-1-re" color="244,37,8" id="route_711AF67C-2251-4573-BC05-48244636845C-KM-25-GEGEN-27FB8DDD-99B7-48F6-A2CA-6D2A7B5704BA-KM-25-GEGEN"/>
	<route edges="6845c-1-re 6845c-0-re 25c3b-0-re 2f160-0 4fc6e-0-re 8d185-0-re 828b5-2-re 828b5-1-re" color="7,131,75" id="route_711AF67C-2251-4573-BC05-48244636845C-KM-25-GEGEN-EF7E1DDA-614A-43A3-A5A4-10CD6F0828B5-KM-25-GEGEN"/>
	<route edges="6845c-1-re 6845c-0-re 25c3b-0-re 67137-2-re 67137-1-re" color="1,107,35" id="route_711AF67C-2251-4573-BC05-48244636845C-KM-25-GEGEN-EF2E9D5E-369D-4398-90A0-AF7488767137-KM-25-GEGEN"/>
	<route edges="17084-1 17084-2 3a195-2-re 3a195-1-re" color="252,5,203" id="route_0364A54B-6CC5-481A-B89B-2089FEE17084-KM-86.42029216853058-IN-D3B2CA70-9EA6-4101-9FE7-8483ADD3A195-KM-25-GEGEN"/>
	<route edges="17084-1 17084-2 c6698-0-re 6c2c9-0 6c2c9-1" color="250,33,194" id="route_0364A54B-6CC5-481A-B89B-2089FEE17084-KM-86.42029216853058-IN-9AA5E60D-1FD4-45B5-8452-F4262DF6C2C9-KM-1453.541904487744-IN"/>
	<route edges="17084-1-re 17084-0-re 95179-0 95179-1" color="98,185,85" id="route_0364A54B-6CC5-481A-B89B-2089FEE17084-KM-25-GEGEN-024C7253-8622-4F9B-829A-6157F7995179-KM-1000-IN"/>
	<route edges="17084-1-re 17084-0-re 9bb0d-14-re 9bb0d-13-re" color="115,50,58" id="route_0364A54B-6CC5-481A-B89B-2089FEE17084-KM-25-GEGEN-E9DC205F-F849-4FF4-A14A-77EE9699BB0D-KM-6000-GEGEN"/>
	<route edges="95179-1 95179-2 95179-3" color="159,99,253" id="route_024C7253-8622-4F9B-829A-6157F7995179-KM-1000-IN-024C7253-8622-4F9B-829A-6157F7995179-KM-2904.2543286491227-IN"/>
	<route edges="95179-3 95179-4 0a292-0-re 99045-0 6845c-2-re 6845c-1-re" color="17,171,166" id="route_024C7253-8622-4F9B-829A-6157F7995179-KM-2904.2543286491227-IN-711AF67C-2251-4573-BC05-48244636845C-KM-25-GEGEN"/>
	<route edges="95179-3 95179-4 0a292-0-re 99045-0 bc557-0 a6abc-0 a6abc-1" color="81,151,173" id="route_024C7253-8622-4F9B-829A-6157F7995179-KM-2904.2543286491227-IN-6D26435E-70F7-4E5D-BECD-FF69836A6ABC-KM-893.3775715190525-IN"/>