<?xml version="1.0" encoding="UTF-8"?>
<routes xmlns:xsi="http://www.w3.org/2001/XMLSchema-instance" xsi:noNamespaceSchemaLocation="http://sumo.dlr.de/xsd/routes_file.xsd">
	<route edges="2ed2f-1 2ed2f-2 86a27-2-re 86a27-1-re" color="255,132,220" id="route_D806FEE1-6913-4569-8B20-01FE1932ED2F-KM-321.5762856547864-IN-23F8DDAB-30EA-4D9F-AAD4-001ADE386A27-KM-25-GEGEN"/>
	<route edges="2ed2f-1 2ed2f-2 18a5c-2-re 18a5c-1-re" color="37,10,239" id="route_D806FEE1-6913-4569-8B20-01FE1932ED2F-KM-321.5762856547864-IN-AEABB08C-2CF7-4480-A08C-002281418A5C-KM-25-GEGEN"/>
	<route edges="2ed2f-1-re 2ed2f-0-re b47bd-0 b47bd-1" color="128,37,252" id="route_D806FEE1-6913-4569-8B20-01FE1932ED2F-KM-25-GEGEN-DA6681BD-B886-432C-8BB7-2F68AB2B47BD-KM-852.2588211144425-IN"/>
	<route edges="2ed2f-1-re 2ed2f-0-re 43608-0 43608-1" color="107,67,225" id="route_D806FEE1-6913-4569-8B20-01FE1932ED2F-KM-25-GEGEN-1F093595-960C-45DE-B900-F6F437443608-KM-165.5616561823125-IN"/>
	<route edges="43608-1 43608-2 501bc-0 501bc-1" color="208,154,51" id="route_1F093595-960C-45DE-B900-F6F437443608-KM-165.5616561823125-IN-3DEFCA99-4210-4F38-80D2-E8E331D501BC-KM-788.1457216628645-IN"/>
	<route edges="43608-1 43608-2 d911e-0 d911e-1" color="212,142,122" id="route_1F093595-960C-45DE-B900-F6F437443608-KM-165.5616561823125-IN-7B293067-D5F3-4B22-8C43-EF6B0EBD911E-KM-238.52550007798908-IN"/>
	<route edges="43608-1-re 43608-0-re 2ed2f-0 2ed2f-1" color="91,127,242" id="route_1F093595-960C-45DE-B900-F6F437443608-KM-25-GEGEN-D806FEE1-6913-4569-8B20-01FE1932ED2F-KM-321.5762856547864-IN"/>
	<route edges="b47bd-1-re b47bd-0-re 2ed2f-0 2ed2f-1" color="235,9,21" id="route_DA6681BD-B886-432C-8BB7-2F68AB2B47BD-KM-25-GEGEN-D806FEE1-6913-4569-8B20-01FE1932ED2F-KM-321.5762856547864-IN"/>
	<route edges="501bc-1 501bc-2 8f4be-0 8f4be-1" color="142,252,65" id="route_3DEFCA99-4210-4F38-80D2-E8E331D501BC-KM-788.1457216628645-IN-6976FA03-C0C3-452F-ADA6-ED7752C8F4BE-KM-169.7673894741766-IN"/>
	<route edges="501bc-1-re 501bc-0-re 43608-2-re 43608-1-re" color="219,158,199" id="route_3DEFCA99-4210-4F38-80D2-E8E331D501BC-KM-25-GEGEN-1F093595-960C-45DE-B900-F6F437443608-KM-25-GEGEN"/>
	<route edges="d911e-1 d911e-2 d4a7f-0 1a47e-2-re 1a47e-1-re" color="10,78,221" id="route_7B293067-D5F3-4B22-8C43-EF6B0EBD911E-KM-238.52550007798908-IN-0B409725-E200-4CFC-AD44-C8B0E011A47E-KM-25-GEGEN"/>
	<route edges="d911e-1 d911e-2 d4a7f-0 b3453-2-re b3453-1-re" color="116,199,30" id="route_7B293067-D5F3-4B22-8C43-EF6B0EBD911E-KM-238.52550007798908-IN-F94562EC-C712-4E76-BF66-6400AD1B3453-KM-25-GEGEN"/>
	<route edges="d911e-1-re d911e-0-re 43608-2-re 43608-1-re" color="197,98,135" id="route_7B293067-D5F3-4B22-8C43-EF6B0EBD911E-KM-25-GEGEN-1F093595-960C-45DE-B900-F6F437443608-KM-25-GEGEN"/>
	<route edges="8f4be-1 8f4be-2 243ec-0 243ec-1" color="91,166,142" id="route_6976FA03-C0C3-452F-ADA6-ED7752C8F4BE-KM-169.7673894741766-IN-D32C1EA8-1D49-48A1-9363-8C872D4243EC-KM-684.7733628877847-IN"/>
	<route edges="8f4be-1-re 8f4be-0-re 501bc-2-re 501bc-1-re" color="65,17,247" id="route_6976FA03-C0C3-452F-ADA6-ED7752C8F4BE-KM-25-GEGEN-3DEFCA99-4210-4F38-80D2-E8E331D501BC-KM-25-GEGEN"/>
	<route edges="a405d-1-re a405d-0-re 8f4be-0 8f4be-1" color="144,157,37" id="route_6741EB7B-6853-4835-B8FA-F48026AA405D-KM-25-GEGEN-6976FA03-C0C3-452F-ADA6-ED7752C8F4BE-KM-169.7673894741766-IN"/>
	<route edges="243ec-1 243ec-2 b91ff-0-re 77bdb-0 77bdb-1" color="215,152,62" id="route_D32C1EA8-1D49-48A1-9363-8C872D4243EC-KM-684.7733628877847-IN-D22582C5-013E-4C6D-A26D-E8B37F077BDB-KM-1671.7895552905081-IN"/>
	<route edges="243ec-1 243ec-2 b91ff-0-re 9655a-0 9655a-1" color="101,17,239" id="route_D32C1EA8-1D49-48A1-9363-8C872D4243EC-KM-684.7733628877847-IN-213A521F-B161-4AE1-949B-536B1819655A-KM-1452.8979874733736-IN"/>
	<route edges="243ec-1 243ec-2 bd6c2-0 bd6c2-1" color="76,49,250" id="route_D32C1EA8-1D49-48A1-9363-8C872D4243EC-KM-684.7733628877847-IN-95A8665D-ED0D-4C98-A53C-598CD20BD6C2-KM-268.8995167296298-IN"/>
	<route edges="243ec-1-re 243ec-0-re 8f4be-2-re 8f4be-1-re" color="99,69,103" id="route_D32C1EA8-1D49-48A1-9363-8C872D4243EC-KM-25-GEGEN-6976FA03-C0C3-452F-ADA6-ED7752C8F4BE-KM-25-GEGEN"/>
	<route edges="15975-1-re 15975-0-re 243ec-0 243ec-1" color="57,110,103" id="route_4996F065-795B-4D42-A182-827CD9615975-KM-25-GEGEN-D32C1EA8-1D49-48A1-9363-8C872D4243EC-KM-684.7733628877847-IN"/>
	<route edges="a55f2-1 a55f2-2 76c39-0 76c39-1" color="89,43,73" id="route_62CAE233-DD42-4426-A497-85CBFDBA55F2-KM-254.45431792963808-IN-91E0E0C7-3363-46FB-9F30-48B24E076C39-KM-1908.0650690078241-IN"/>
	<route edges="a55f2-1-re a55f2-0-re 6fa8e-0 160c8-2-re 160c8-1-re" color="251,92,92" id="route_62CAE233-DD42-4426-A497-85CBFDBA55F2-KM-25-GEGEN-B52BA4ED-23F8-49FE-84BE-51B6A7D160C8-KM-25-GEGEN"/>
	<route edges="a55f2-1-re a55f2-0-re 6fa8e-0 77bdb-2-re 77bdb-1-re" color="235,165,39" id="route_62CAE233-DD42-4426-A497-85CBFDBA55F2-KM-25-GEGEN-D22582C5-013E-4C6D-A26D-E8B37F077BDB-KM-25-GEGEN"/>
	<route edges="6dd48-1 6dd48-2 6dd48-3" color="12,236,202" id="route_F61E00E0-9323-4EF7-B885-953D8C46DD48-KM-1000-IN-F61E00E0-9323-4EF7-B885-953D8C46DD48-KM-2000-IN"/>
	<route edges="6dd48-3 6dd48-4 6dd48-5" color="220,192,114" id="route_F61E00E0-9323-4EF7-B885-953D8C46DD48-KM-2000-IN-F61E00E0-9323-4EF7-B885-953D8C46DD48-KM-3000-IN"/>
	<route edges="6dd48-5 6dd48-6 6dd48-7" color="254,141,99" id="route_F61E00E0-9323-4EF7-B885-953D8C46DD48-KM-3000-IN-F61E00E0-9323-4EF7-B885-953D8C46DD48-KM-4000-IN"/>
	<route edges="6dd48-7 6dd48-8 6dd48-9" color="48,1,77" id="route_F61E00E0-9323-4EF7-B885-953D8C46DD48-KM-4000-IN-F61E00E0-9323-4EF7-B885-953D8C46DD48-KM-5560.253303703657-IN"/>
	<route edges="6dd48-9 6dd48-10 c4d80-5-re c4d80-4-re" color="125,147,72" id="route_F61E00E0-9323-4EF7-B885-953D8C46DD48-KM-5560.253303703657-IN-FD39085A-2593-4619-95BC-4D62209C4D80-KM-1001-GEGEN"/>
	<route edges="6dd48-9 6dd48-10 3a5c3-2-re 3a5c3-1-re" color="234,143,230" id="route_F61E00E0-9323-4EF7-B885-953D8C46DD48-KM-5560.253303703657-IN-6262906D-2791-4B48-B215-A85E3C53A5C3-KM-25-GEGEN"/>
	<route edges="6dd48-9-re 6dd48-8-re 6dd48-7-re" color="12,205,242" id="route_F61E00E0-9323-4EF7-B885-953D8C46DD48-KM-4000-GEGEN-F61E00E0-9323-4EF7-B885-953D8C46DD48-KM-3000-GEGEN"/>
	<route edges="6dd48-7-re 6dd48-6-re 6dd48-5-re" color="80,254,75" id="route_F61E00E0-9323-4EF7-B885-953D8C46DD48-KM-3000-GEGEN-F61E00E0-9323-4EF7-B885-953D8C46DD48-KM-2000-GEGEN"/>
	<route edges="6dd48-5-re 6dd48-4-re 6dd48-3-re" color="53,197,213" id="route_F61E00E0-9323-4EF7-B885-953D8C46DD48-KM-2000-GEGEN-F61E00E0-9323-4EF7-B885-953D8C46DD48-KM-1000-GEGEN"/>
	<route edges="6dd48-3-re 6dd48-2-re 6dd48-1-re" color="198,27,44" id="route_F61E00E0-9323-4EF7-B885-953D8C46DD48-KM-1000-GEGEN-F61E00E0-9323-4EF7-B885-953D8C46DD48-KM-25-GEGEN"/>
	<route edges="6dd48-1-re 6dd48-0-re 6fa8e-0 160c8-2-re 160c8-1-re" color="45,20,81" id="route_F61E00E0-9323-4EF7-B885-953D8C46DD48-KM-25-GEGEN-B52BA4ED-23F8-49FE-84BE-51B6A7D160C8-KM-25-GEGEN"/>
	<route edges="6dd48-1-re 6dd48-0-re 6fa8e-0 77bdb-2-re 77bdb-1-re" color="84,57,213" id="route_F61E00E0-9323-4EF7-B885-953D8C46DD48-KM-25-GEGEN-D22582C5-013E-4C6D-A26D-E8B37F077BDB-KM-25-GEGEN"/>
	<route edges="a6ba2-1 a6ba2-2 a0658-0-re 68497-2-re 68497-1-re" color="216,73,60" id="route_AAD85414-6507-44B7-A71D-9DC3A0EA6BA2-KM-463.81731618508263-IN-148E8538-292D-4148-9E4F-DD098D268497-KM-25-GEGEN"/>
	<route edges="a6ba2-1 a6ba2-2 a0658-0-re 9655a-2-re 9655a-1-re" color="52,11,19" id="route_AAD85414-6507-44B7-A71D-9DC3A0EA6BA2-KM-463.81731618508263-IN-213A521F-B161-4AE1-949B-536B1819655A-KM-25-GEGEN"/>
	<route edges="a6ba2-1-re a6ba2-0-re 76c39-0 76c39-1" color="129,90,1" id="route_AAD85414-6507-44B7-A71D-9DC3A0EA6BA2-KM-25-GEGEN-91E0E0C7-3363-46FB-9F30-48B24E076C39-KM-1908.0650690078241-IN"/>
	<route edges="76c39-1 76c39-2 9c667-0 9c667-1" color="37,23,237" id="route_91E0E0C7-3363-46FB-9F30-48B24E076C39-KM-1908.0650690078241-IN-198ED85A-69D0-4D40-A33C-5CDC57E9C667-KM-164.87032984724672-IN"/>
	<route edges="76c39-1 76c39-2 af2cd-0 ed706-0 6a6c3-0-re 4244a-0 3b7a6-0 3b7a6-1" color="80,32,194" id="route_91E0E0C7-3363-46FB-9F30-48B24E076C39-KM-1908.0650690078241-IN-873CA5EA-DEC0-48AF-84F1-7B495993B7A6-KM-181.66400492600528-IN"/>
	<route edges="76c39-1 76c39-2 af2cd-0 ed706-0 6a6c3-0-re 4244a-0 3408b-0 3408b-1" color="109,57,255" id="route_91E0E0C7-3363-46FB-9F30-48B24E076C39-KM-1908.0650690078241-IN-7E748C67-76D5-4130-A4FC-75D59263408B-KM-340.8087986779541-IN"/>
	<route edges="76c39-1 76c39-2 af2cd-0 ed706-0 679fa-0 679fa-1" color="26,218,152" id="route_91E0E0C7-3363-46FB-9F30-48B24E076C39-KM-1908.0650690078241-IN-607609DE-893A-474D-9823-83F8A7C679FA-KM-631.7357322698663-IN"/>
	<route edges="76c39-1-re 76c39-0-re a6ba2-0 a6ba2-1" color="184,2,27" id="route_91E0E0C7-3363-46FB-9F30-48B24E076C39-KM-25-GEGEN-AAD85414-6507-44B7-A71D-9DC3A0EA6BA2-KM-463.81731618508263-IN"/>
	<route edges="76c39-1-re 76c39-0-re a55f2-2-re a55f2-1-re" color="4,149,105" id="route_91E0E0C7-3363-46FB-9F30-48B24E076C39-KM-25-GEGEN-62CAE233-DD42-4426-A497-85CBFDBA55F2-KM-25-GEGEN"/>
	<route edges="d2923-1 d2923-2 d2923-3" color="200,95,79" id="route_0F96CBEE-FE84-4D1B-9A2C-5307952D2923-KM-1000-IN-0F96CBEE-FE84-4D1B-9A2C-5307952D2923-KM-2968.0134948223827-IN"/>
	<route edges="d2923-3 d2923-4 10b22-0 10b22-1" color="236,179,94" id="route_0F96CBEE-FE84-4D1B-9A2C-5307952D2923-KM-2968.0134948223827-IN-C4A23902-7F11-4275-9ADE-F58377910B22-KM-1453.541904487744-IN"/>
	<route edges="d2923-3-re d2923-2-re d2923-1-re" color="232,17,184" id="route_0F96CBEE-FE84-4D1B-9A2C-5307952D2923-KM-1000-GEGEN-0F96CBEE-FE84-4D1B-9A2C-5307952D2923-KM-25-GEGEN"/>
	<route edges="d2923-1-re d2923-0-re 02623-0 3408b-2-re 3408b-1-re" color="36,217,138" id="route_0F96CBEE-FE84-4D1B-9A2C-5307952D2923-KM-25-GEGEN-7E748C67-76D5-4130-A4FC-75D59263408B-KM-25-GEGEN"/>
	<route edges="d2923-1-re d2923-0-re 02623-0 f0498-0 a953d-0-re 0757a-0 3b7a6-2-re 3b7a6-1-re" color="80,244,185" id="route_0F96CBEE-FE84-4D1B-9A2C-5307952D2923-KM-25-GEGEN-873CA5EA-DEC0-48AF-84F1-7B495993B7A6-KM-25-GEGEN"/>
	<route edges="d2923-1-re d2923-0-re 02623-0 f0498-0 a953d-0-re 0757a-0 a1234-0 68726-0 68726-1" color="4,47,203" id="route_0F96CBEE-FE84-4D1B-9A2C-5307952D2923-KM-25-GEGEN-5FBA1A0B-75B5-4C98-84FC-C81977E68726-KM-893.3775715190525-IN"/>
	<route edges="d2923-1-re d2923-0-re 02623-0 f0498-0 a953d-0-re 0757a-0 a1234-0 191d8-0 f2013-2-re f2013-1-re" color="150,68,64" id="route_0F96CBEE-FE84-4D1B-9A2C-5307952D2923-KM-25-GEGEN-EC937F7D-A928-4212-94CC-6C7D4E4F2013-KM-25-GEGEN"/>
	<route edges="d2923-1-re d2923-0-re 02623-0 f0498-0 a953d-0-re 0757a-0 a1234-0 191d8-0 bac26-0 c5fdf-2-re c5fdf-1-re" color="70,220,71" id="route_0F96CBEE-FE84-4D1B-9A2C-5307952D2923-KM-25-GEGEN-266110E2-CC65-4633-B108-457502EC5FDF-KM-25-GEGEN"/>
	<route edges="6228b-1 6228b-2 23224-2-re 23224-1-re" color="254,130,250" id="route_E429FEC2-2E0F-45EF-A565-A8837346228B-KM-96.47358751756049-IN-31A1912E-22B9-447A-B2B7-DB510B523224-KM-25-GEGEN"/>
	<route edges="6228b-1 6228b-2 636cc-0 636cc-1" color="234,169,134" id="route_E429FEC2-2E0F-45EF-A565-A8837346228B-KM-96.47358751756049-IN-F9215289-3AD4-4FD2-B5C5-9CEEE1F636CC-KM-914.6100386400316-IN"/>
	<route edges="6228b-1-re 6228b-0-re cc324-0 cc324-1" color="184,107,174" id="route_E429FEC2-2E0F-45EF-A565-A8837346228B-KM-25-GEGEN-70EC6890-88D2-45C4-A598-62C14F7CC324-KM-196.352947606197-IN"/>
	<route edges="cc324-1 cc324-2 10244-2-re 10244-1-re" color="213,220,97" id="route_70EC6890-88D2-45C4-A598-62C14F7CC324-KM-196.352947606197-IN-8CC5886D-5C76-4B51-A132-ED1F7AC10244-KM-25-GEGEN"/>
	<route edges="cc324-1 cc324-2 eeb89-2-re eeb89-1-re" color="162,143,174" id="route_70EC6890-88D2-45C4-A598-62C14F7CC324-KM-196.352947606197-IN-09CD2C34-5B71-440F-B396-414AD3BEEB89-KM-25-GEGEN"/>
	<route edges="cc324-1-re cc324-0-re 6228b-0 6228b-1" color="50,229,216" id="route_70EC6890-88D2-45C4-A598-62C14F7CC324-KM-25-GEGEN-E429FEC2-2E0F-45EF-A565-A8837346228B-KM-96.47358751756049-IN"/>
	<route edges="cc324-1-re cc324-0-re 17ddd-0 0b6af-0 7c331-0 7c331-1" color="24,18,1" id="route_70EC6890-88D2-45C4-A598-62C14F7CC324-KM-25-GEGEN-53ADF06D-AF2C-420A-AFD2-D6284167C331-KM-103.04561740430805-IN"/>
	<route edges="cc324-1-re cc324-0-re 17ddd-0 0b6af-0 092ae-2-re 092ae-1-re" color="136,84,134" id="route_70EC6890-88D2-45C4-A598-62C14F7CC324-KM-25-GEGEN-6D143481-8BEB-4343-8671-9AA7571092AE-KM-25-GEGEN"/>
	<route edges="cc324-1-re cc324-0-re 17ddd-0 80ece-0 80ece-1" color="31,135,108" id="route_70EC6890-88D2-45C4-A598-62C14F7CC324-KM-25-GEGEN-851C2210-1ED6-42D5-A0BA-079EFE480ECE-KM-1077.9134160895494-IN"/>
	<route edges="80ece-1 80ece-2 a7b99-0 97284-0 52f54-0 52f54-1" color="186,24,43" id="route_851C2210-1ED6-42D5-A0BA-079EFE480ECE-KM-1077.9134160895494-IN-7BFFA629-2AAA-4AC9-83A6-F5C589352F54-KM-455.0663329602517-IN"/>
	<route edges="80ece-1-re 80ece-0-re 17ddd-0-re cc324-0 cc324-1" color="70,188,42" id="route_851C2210-1ED6-42D5-A0BA-079EFE480ECE-KM-25-GEGEN-70EC6890-88D2-45C4-A598-62C14F7CC324-KM-196.352947606197-IN"/>
	<route edges="092ae-1 092ae-2 0b6af-0-re 17ddd-0-re cc324-0 cc324-1" color="154,61,123" id="route_6D143481-8BEB-4343-8671-9AA7571092AE-KM-1049.2555641663412-IN-70EC6890-88D2-45C4-A598-62C14F7CC324-KM-196.352947606197-IN"/>
	<route edges="092ae-1-re 092ae-0-re 97284-0 52f54-0 52f54-1" color="161,170,183" id="route_6D143481-8BEB-4343-8671-9AA7571092AE-KM-25-GEGEN-7BFFA629-2AAA-4AC9-83A6-F5C589352F54-KM-455.0663329602517-IN"/>
	<route edges="52f54-1 52f54-2 64137-0 64137-1" color="52,98,76" id="route_7BFFA629-2AAA-4AC9-83A6-F5C589352F54-KM-455.0663329602517-IN-01D28F02-23D9-4537-88AE-276E1F464137-KM-90.49227411094549-IN"/>
	<route edges="52f54-1 52f54-2 7c280-0 7c280-1" color="40,162,102" id="route_7BFFA629-2AAA-4AC9-83A6-F5C589352F54-KM-455.0663329602517-IN-AB66643D-89AB-4EE2-8E41-66E262D7C280-KM-79.28485462572691-IN"/>
	<route edges="52f54-1-re 52f54-0-re 97284-0-re a7b99-0-re 1550a-0 26d5e-2-re 26d5e-1-re" color="126,5,92" id="route_7BFFA629-2AAA-4AC9-83A6-F5C589352F54-KM-25-GEGEN-3BCC13A1-61FA-4E73-A23B-CAD3F0926D5E-KM-25-GEGEN"/>
	<route edges="52f54-1-re 52f54-0-re 97284-0-re a7b99-0-re 80ece-2-re 80ece-1-re" color="76,252,93" id="route_7BFFA629-2AAA-4AC9-83A6-F5C589352F54-KM-25-GEGEN-851C2210-1ED6-42D5-A0BA-079EFE480ECE-KM-25-GEGEN"/>
	<route edges="52f54-1-re 52f54-0-re 97284-0-re 092ae-0 092ae-1" color="195,137,57" id="route_7BFFA629-2AAA-4AC9-83A6-F5C589352F54-KM-25-GEGEN-6D143481-8BEB-4343-8671-9AA7571092AE-KM-1049.2555641663412-IN"/>
	<route edges="52f54-1-re 52f54-0-re 4defd-0 c8aab-2-re c8aab-1-re" color="184,38,136" id="route_7BFFA629-2AAA-4AC9-83A6-F5C589352F54-KM-25-GEGEN-BD56EFCF-E95A-4DBE-8656-072FBDDC8AAB-KM-25-GEGEN"/>
	<route edges="52f54-1-re 52f54-0-re 4defd-0 3cc46-0 7ecaa-2-re 7ecaa-1-re" color="230,67,50" id="route_7BFFA629-2AAA-4AC9-83A6-F5C589352F54-KM-25-GEGEN-C93658F4-6633-4BF6-B209-F6406CE7ECAA-KM-25-GEGEN"/>
	<route edges="52f54-1-re 52f54-0-re 4defd-0 3cc46-0 0ac66-0-re 246d4-0 636cc-2-re 636cc-1-re" color="180,114,101" id="route_7BFFA629-2AAA-4AC9-83A6-F5C589352F54-KM-25-GEGEN-F9215289-3AD4-4FD2-B5C5-9CEEE1F636CC-KM-25-GEGEN"/>
	<route edges="52f54-1-re 52f54-0-re 4defd-0 3cc46-0 0ac66-0-re 246d4-0 11ea0-2-re 11ea0-1-re" color="85,251,178" id="route_7BFFA629-2AAA-4AC9-83A6-F5C589352F54-KM-25-GEGEN-09733AE5-A572-43CF-99FE-A254DAC11EA0-KM-25-GEGEN"/>
	<route edges="7c280-1 7c280-2 b8cdf-0 b8cdf-1" color="251,11,194" id="route_AB66643D-89AB-4EE2-8E41-66E262D7C280-KM-79.28485462572691-IN-A3963A86-BD13-478D-8C8F-8EFE297B8CDF-KM-984.5542787261779-IN"/>
	<route edges="7c280-1-re 7c280-0-re 52f54-2-re 52f54-1-re" color="59,134,134" id="route_AB66643D-89AB-4EE2-8E41-66E262D7C280-KM-25-GEGEN-7BFFA629-2AAA-4AC9-83A6-F5C589352F54-KM-25-GEGEN"/>
	<route edges="64137-1 64137-2 89ccf-0 89ccf-1" color="152,63,54" id="route_01D28F02-23D9-4537-88AE-276E1F464137-KM-90.49227411094549-IN-ACDEAC87-207F-4F27-AF60-5C9350D89CCF-KM-973.5630285209269-IN"/>
	<route edges="64137-1-re 64137-0-re 52f54-2-re 52f54-1-re" color="209,217,178" id="route_01D28F02-23D9-4537-88AE-276E1F464137-KM-25-GEGEN-7BFFA629-2AAA-4AC9-83A6-F5C589352F54-KM-25-GEGEN"/>
	<route edges="b8cdf-1 b8cdf-2 ea84e-0 ea84e-1" color="240,192,104" id="route_A3963A86-BD13-478D-8C8F-8EFE297B8CDF-KM-984.5542787261779-IN-1BFC1EE2-2A3D-42AD-A039-65A97F0EA84E-KM-81.24463641442591-IN"/>
	<route edges="b8cdf-1-re b8cdf-0-re 1ae8d-0 1ae8d-1" color="212,140,134" id="route_A3963A86-BD13-478D-8C8F-8EFE297B8CDF-KM-25-GEGEN-D55A1A24-389C-4B99-88FA-AF831151AE8D-KM-101.34410270980774-IN"/>
	<route edges="b8cdf-1-re b8cdf-0-re 7c280-2-re 7c280-1-re" color="102,206,217" id="route_A3963A86-BD13-478D-8C8F-8EFE297B8CDF-KM-25-GEGEN-AB66643D-89AB-4EE2-8E41-66E262D7C280-KM-25-GEGEN"/>
	<route edges="1ae8d-1 1ae8d-2 a9a4c-0 a9a4c-1" color="7,69,106" id="route_D55A1A24-389C-4B99-88FA-AF831151AE8D-KM-101.34410270980774-IN-72D9C26C-DF73-4F73-8873-4B6EDAEA9A4C-KM-173.08552154511705-IN"/>
	<route edges="1ae8d-1-re 1ae8d-0-re b8cdf-0 b8cdf-1" color="160,221,11" id="route_D55A1A24-389C-4B99-88FA-AF831151AE8D-KM-25-GEGEN-A3963A86-BD13-478D-8C8F-8EFE297B8CDF-KM-984.5542787261779-IN"/>
	<route edges="c0f64-0 c0f64-1 c0f64-2" color="64,130,65" id="route_508E970F-562E-4A45-AB7D-D7396A2C0F64-KM-1-IN-508E970F-562E-4A45-AB7D-D7396A2C0F64-KM-1246.872029481161-IN"/>
	<route edges="c0f64-2 c0f64-3 be9cf-0 be9cf-1" color="193,41,181" id="route_508E970F-562E-4A45-AB7D-D7396A2C0F64-KM-1246.872029481161-IN-5B4E1D09-CFF8-4C09-9EE7-2A09F80BE9CF-KM-195.21324611100448-IN"/>
	<route edges="7632f-1 7632f-2 2c3a8-0 86a27-0 86a27-1" color="117,236,232" id="route_5A191B5D-6FE3-45E6-9AC1-04C305C7632F-KM-1615.0764173282626-IN-23F8DDAB-30EA-4D9F-AAD4-001ADE386A27-KM-136.72691529462978-IN"/>
	<route edges="7632f-1 7632f-2 2c3a8-0 3a792-0 3a792-1" color="96,248,236" id="route_5A191B5D-6FE3-45E6-9AC1-04C305C7632F-KM-1615.0764173282626-IN-F760D3AD-06E6-4326-8A14-DC88B273A792-KM-937.1466831358305-IN"/>
	<route edges="7632f-1-re 7632f-0-re b52ec-0 72fa8-2-re 72fa8-1-re" color="77,2,232" id="route_5A191B5D-6FE3-45E6-9AC1-04C305C7632F-KM-25-GEGEN-0D3F3C5C-8D6E-4693-A636-7A827A172FA8-KM-25-GEGEN"/>
	<route edges="7632f-1-re 7632f-0-re b52ec-0 ac637-0-re 24e5b-2-re 24e5b-1-re" color="10,11,4" id="route_5A191B5D-6FE3-45E6-9AC1-04C305C7632F-KM-25-GEGEN-85F98001-4849-4713-A287-CA2FD1424E5B-KM-25-GEGEN"/>
	<route edges="81376-1 81376-2 81376-3" color="232,129,31" id="route_7F2AE621-84E8-42FF-9DB1-8E2D97E81376-KM-1000-IN-7F2AE621-84E8-42FF-9DB1-8E2D97E81376-KM-2000-IN"/>
	<route edges="81376-3 81376-4 81376-5" color="25,83,19" id="route_7F2AE621-84E8-42FF-9DB1-8E2D97E81376-KM-2000-IN-7F2AE621-84E8-42FF-9DB1-8E2D97E81376-KM-3170.0135601901507-IN"/>
	<route edges="81376-5 81376-6 b7027-0 b7027-1" color="165,184,246" id="route_7F2AE621-84E8-42FF-9DB1-8E2D97E81376-KM-3170.0135601901507-IN-2880D469-8C9E-4485-AFE9-8D42368B7027-KM-1145.0075044737318-IN"/>
	<route edges="81376-5 81376-6 093f4-0 093f4-1" color="232,79,199" id="route_7F2AE621-84E8-42FF-9DB1-8E2D97E81376-KM-3170.0135601901507-IN-184E0535-BD1A-4920-85A6-611070F093F4-KM-199.43697602843812-IN"/>
	<route edges="81376-5-re 81376-4-re 81376-3-re" color="136,51,20" id="route_7F2AE621-84E8-42FF-9DB1-8E2D97E81376-KM-2000-GEGEN-7F2AE621-84E8-42FF-9DB1-8E2D97E81376-KM-1000-GEGEN"/>
	<route edges="81376-3-re 81376-2-re 81376-1-re" color="143,4,169" id="route_7F2AE621-84E8-42FF-9DB1-8E2D97E81376-KM-1000-GEGEN-7F2AE621-84E8-42FF-9DB1-8E2D97E81376-KM-25-GEGEN"/>
	<route edges="81376-1-re 81376-0-re b52ec-0 72fa8-2-re 72fa8-1-re" color="85,216,141" id="route_7F2AE621-84E8-42FF-9DB1-8E2D97E81376-KM-25-GEGEN-0D3F3C5C-8D6E-4693-A636-7A827A172FA8-KM-25-GEGEN"/>
	<route edges="81376-1-re 81376-0-re b52ec-0 ac637-0-re 24e5b-2-re 24e5b-1-re" color="93,219,179" id="route_7F2AE621-84E8-42FF-9DB1-8E2D97E81376-KM-25-GEGEN-85F98001-4849-4713-A287-CA2FD1424E5B-KM-25-GEGEN"/>
	<route edges="fe4c2-1 fe4c2-2 1f6b5-0 1f6b5-1" color="131,101,252" id="route_9BA83ECA-4C11-479B-BD4E-289EB84FE4C2-KM-152.73211692197054-IN-947A4D55-13CD-44E9-BFBB-553F5471F6B5-KM-1000-IN"/>
	<route edges="fe4c2-1-re fe4c2-0-re 2c3a8-0 86a27-0 86a27-1" color="162,93,122" id="route_9BA83ECA-4C11-479B-BD4E-289EB84FE4C2-KM-25-GEGEN-23F8DDAB-30EA-4D9F-AAD4-001ADE386A27-KM-136.72691529462978-IN"/>
	<route edges="fe4c2-1-re fe4c2-0-re 2c3a8-0 3a792-0 3a792-1" color="88,162,48" id="route_9BA83ECA-4C11-479B-BD4E-289EB84FE4C2-KM-25-GEGEN-F760D3AD-06E6-4326-8A14-DC88B273A792-KM-937.1466831358305-IN"/>
	<route edges="3a792-1 3a792-2 d4a7f-0 1a47e-2-re 1a47e-1-re" color="92,91,121" id="route_F760D3AD-06E6-4326-8A14-DC88B273A792-KM-937.1466831358305-IN-0B409725-E200-4CFC-AD44-C8B0E011A47E-KM-25-GEGEN"/>
	<route edges="3a792-1 3a792-2 d4a7f-0 b3453-2-re b3453-1-re" color="192,224,253" id="route_F760D3AD-06E6-4326-8A14-DC88B273A792-KM-937.1466831358305-IN-F94562EC-C712-4E76-BF66-6400AD1B3453-KM-25-GEGEN"/>
	<route edges="3a792-1-re 3a792-0-re 2c3a8-0-re 7632f-2-re 7632f-1-re" color="193,66,15" id="route_F760D3AD-06E6-4326-8A14-DC88B273A792-KM-25-GEGEN-5A191B5D-6FE3-45E6-9AC1-04C305C7632F-KM-25-GEGEN"/>
	<route edges="3a792-1-re 3a792-0-re 2c3a8-0-re fe4c2-0 fe4c2-1" color="50,245,131" id="route_F760D3AD-06E6-4326-8A14-DC88B273A792-KM-25-GEGEN-9BA83ECA-4C11-479B-BD4E-289EB84FE4C2-KM-152.73211692197054-IN"/>
	<route edges="86a27-1 86a27-2 2ed2f-2-re 2ed2f-1-re" color="204,105,49" id="route_23F8DDAB-30EA-4D9F-AAD4-001ADE386A27-KM-136.72691529462978-IN-D806FEE1-6913-4569-8B20-01FE1932ED2F-KM-25-GEGEN"/>
	<route edges="86a27-1-re 86a27-0-re 2c3a8-0-re 7632f-2-re 7632f-1-re" color="159,197,131" id="route_23F8DDAB-30EA-4D9F-AAD4-001ADE386A27-KM-25-GEGEN-5A191B5D-6FE3-45E6-9AC1-04C305C7632F-KM-25-GEGEN"/>
	<route edges="86a27-1-re 86a27-0-re 2c3a8-0-re fe4c2-0 fe4c2-1" color="160,160,122" id="route_23F8DDAB-30EA-4D9F-AAD4-001ADE386A27-KM-25-GEGEN-9BA83ECA-4C11-479B-BD4E-289EB84FE4C2-KM-152.73211692197054-IN"/>
	<route edges="cd504-1 cd504-2 1dd1d-4-re 1dd1d-3-re" color="88,236,14" id="route_8C8FCECC-4BBE-4422-8294-A168FA0CD504-KM-848.6990357234663-IN-48490FF4-0834-4734-8DC8-91A7AB81DD1D-KM-1000-GEGEN"/>
	<route edges="cd504-1-re cd504-0-re e0d47-0 e0d47-1" color="73,118,97" id="route_8C8FCECC-4BBE-4422-8294-A168FA0CD504-KM-25-GEGEN-905CF986-2853-4A42-8E97-2F1C4DDE0D47-KM-1000-IN"/>
	<route edges="e0d47-1 e0d47-2 e0d47-3" color="85,134,44" id="route_905CF986-2853-4A42-8E97-2F1C4DDE0D47-KM-1000-IN-905CF986-2853-4A42-8E97-2F1C4DDE0D47-KM-2000-IN"/>
	<route edges="e0d47-3 e0d47-4 e0d47-5" color="182,134,19" id="route_905CF986-2853-4A42-8E97-2F1C4DDE0D47-KM-2000-IN-905CF986-2853-4A42-8E97-2F1C4DDE0D47-KM-3000-IN"/>
	<route edges="e0d47-5 e0d47-6 e0d47-7" color="20,115,16" id="route_905CF986-2853-4A42-8E97-2F1C4DDE0D47-KM-3000-IN-905CF986-2853-4A42-8E97-2F1C4DDE0D47-KM-4000-IN"/>
	<route edges="e0d47-7 e0d47-8 e0d47-9" color="80,64,131" id="route_905CF986-2853-4A42-8E97-2F1C4DDE0D47-KM-4000-IN-905CF986-2853-4A42-8E97-2F1C4DDE0D47-KM-5000-IN"/>
	<route edges="e0d47-9 e0d47-10 e0d47-11" color="209,230,24" id="route_905CF986-2853-4A42-8E97-2F1C4DDE0D47-KM-5000-IN-905CF986-2853-4A42-8E97-2F1C4DDE0D47-KM-6000-IN"/>
	<route edges="e0d47-11 e0d47-12 e0d47-13" color="233,34,197" id="route_905CF986-2853-4A42-8E97-2F1C4DDE0D47-KM-6000-IN-905CF986-2853-4A42-8E97-2F1C4DDE0D47-KM-7625.423054083232-IN"/>
	<route edges="e0d47-13 e0d47-14 99ebb-0 99ebb-1" color="111,226,98" id="route_905CF986-2853-4A42-8E97-2F1C4DDE0D47-KM-7625.423054083232-IN-6CD3D615-5F8D-4C6B-99D1-A0B1ACE99EBB-KM-86.42029216853058-IN"/>
	<route edges="e0d47-13-re e0d47-12-re e0d47-11-re" color="55,159,183" id="route_905CF986-2853-4A42-8E97-2F1C4DDE0D47-KM-6000-GEGEN-905CF986-2853-4A42-8E97-2F1C4DDE0D47-KM-5000-GEGEN"/>
	<route edges="e0d47-11-re e0d47-10-re e0d47-9-re" color="94,239,128" id="route_905CF986-2853-4A42-8E97-2F1C4DDE0D47-KM-5000-GEGEN-905CF986-2853-4A42-8E97-2F1C4DDE0D47-KM-4000-GEGEN"/>
	<route edges="e0d47-9-re e0d47-8-re e0d47-7-re" color="239,16,68" id="route_905CF986-2853-4A42-8E97-2F1C4DDE0D47-KM-4000-GEGEN-905CF986-2853-4A42-8E97-2F1C4DDE0D47-KM-3000-GEGEN"/>
	<route edges="e0d47-7-re e0d47-6-re e0d47-5-re" color="142,198,6" id="route_905CF986-2853-4A42-8E97-2F1C4DDE0D47-KM-3000-GEGEN-905CF986-2853-4A42-8E97-2F1C4DDE0D47-KM-2000-GEGEN"/>
	<route edges="e0d47-5-re e0d47-4-re e0d47-3-re" color="22,34,30" id="route_905CF986-2853-4A42-8E97-2F1C4DDE0D47-KM-2000-GEGEN-905CF986-2853-4A42-8E97-2F1C4DDE0D47-KM-1000-GEGEN"/>
	<route edges="e0d47-3-re e0d47-2-re e0d47-1-re" color="7,139,149" id="route_905CF986-2853-4A42-8E97-2F1C4DDE0D47-KM-1000-GEGEN-905CF986-2853-4A42-8E97-2F1C4DDE0D47-KM-25-GEGEN"/>
	<route edges="e0d47-1-re e0d47-0-re bace0-0 bace0-1" color="14,77,57" id="route_905CF986-2853-4A42-8E97-2F1C4DDE0D47-KM-25-GEGEN-186141BA-FB6D-442B-880F-296FE15BACE0-KM-127.01052255433262-IN"/>
	<route edges="e0d47-1-re e0d47-0-re cd504-0 cd504-1" color="196,199,56" id="route_905CF986-2853-4A42-8E97-2F1C4DDE0D47-KM-25-GEGEN-8C8FCECC-4BBE-4422-8294-A168FA0CD504-KM-848.6990357234663-IN"/>
	<route edges="bace0-1 bace0-2 be9cf-2-re be9cf-1-re" color="156,23,215" id="route_186141BA-FB6D-442B-880F-296FE15BACE0-KM-127.01052255433262-IN-5B4E1D09-CFF8-4C09-9EE7-2A09F80BE9CF-KM-25-GEGEN"/>
	<route edges="bace0-1-re bace0-0-re e0d47-0 e0d47-1" color="104,69,206" id="route_186141BA-FB6D-442B-880F-296FE15BACE0-KM-25-GEGEN-905CF986-2853-4A42-8E97-2F1C4DDE0D47-KM-1000-IN"/>
	<route edges="9c667-1 9c667-2 4244a-0 3b7a6-0 3b7a6-1" color="218,196,166" id="route_198ED85A-69D0-4D40-A33C-5CDC57E9C667-KM-164.87032984724672-IN-873CA5EA-DEC0-48AF-84F1-7B495993B7A6-KM-181.66400492600528-IN"/>
	<route edges="9c667-1 9c667-2 4244a-0 3408b-0 3408b-1" color="216,193,129" id="route_198ED85A-69D0-4D40-A33C-5CDC57E9C667-KM-164.87032984724672-IN-7E748C67-76D5-4130-A4FC-75D59263408B-KM-340.8087986779541-IN"/>
	<route edges="9c667-1-re 9c667-0-re 76c39-2-re 76c39-1-re" color="112,22,41" id="route_198ED85A-69D0-4D40-A33C-5CDC57E9C667-KM-25-GEGEN-91E0E0C7-3363-46FB-9F30-48B24E076C39-KM-25-GEGEN"/>
	<route edges="3408b-1 3408b-2 02623-0-re d2923-0 d2923-1" color="145,241,191" id="route_7E748C67-76D5-4130-A4FC-75D59263408B-KM-340.8087986779541-IN-0F96CBEE-FE84-4D1B-9A2C-5307952D2923-KM-1000-IN"/>
	<route edges="3408b-1 3408b-2 02623-0-re 0046c-0 b954b-0 b954b-1" color="48,90,20" id="route_7E748C67-76D5-4130-A4FC-75D59263408B-KM-340.8087986779541-IN-92C56532-AF7C-48D2-B9B4-4D5A33BB954B-KM-1000-IN"/>
	<route edges="3408b-1-re 3408b-0-re 4244a-0-re 6a6c3-0 ed706-0-re dcd37-2-re dcd37-1-re" color="2,141,174" id="route_7E748C67-76D5-4130-A4FC-75D59263408B-KM-25-GEGEN-A3DEC360-BC9A-435E-93C6-C96C054DCD37-KM-25-GEGEN"/>
	<route edges="3408b-1-re 3408b-0-re 4244a-0-re 6a6c3-0 ed706-0-re af2cd-0-re 76c39-2-re 76c39-1-re" color="251,113,28" id="route_7E748C67-76D5-4130-A4FC-75D59263408B-KM-25-GEGEN-91E0E0C7-3363-46FB-9F30-48B24E076C39-KM-25-GEGEN"/>
	<route edges="3408b-1-re 3408b-0-re 4244a-0-re 9c667-2-re 9c667-1-re" color="40,8,19" id="route_7E748C67-76D5-4130-A4FC-75D59263408B-KM-25-GEGEN-198ED85A-69D0-4D40-A33C-5CDC57E9C667-KM-25-GEGEN"/>
	<route edges="3b7a6-1 3b7a6-2 0757a-0-re 2d98e-2-re 2d98e-1-re" color="8,234,57" id="route_873CA5EA-DEC0-48AF-84F1-7B495993B7A6-KM-181.66400492600528-IN-FC4D8D60-E3C0-4057-B6D6-72A0E962D98E-KM-25-GEGEN"/>
	<route edges="3b7a6-1 3b7a6-2 0757a-0-re a953d-0 e7633-4-re e7633-3-re" color="246,47,157" id="route_873CA5EA-DEC0-48AF-84F1-7B495993B7A6-KM-181.66400492600528-IN-9012881E-A81A-46C3-B095-526238DE7633-KM-1000-GEGEN"/>
	<route edges="3b7a6-1 3b7a6-2 0757a-0-re a953d-0 f0498-0-re 02623-0-re d2923-0 d2923-1" color="9,15,195" id="route_873CA5EA-DEC0-48AF-84F1-7B495993B7A6-KM-181.66400492600528-IN-0F96CBEE-FE84-4D1B-9A2C-5307952D2923-KM-1000-IN"/>
	<route edges="3b7a6-1 3b7a6-2 0757a-0-re a953d-0 f0498-0-re 02623-0-re 0046c-0 b954b-0 b954b-1" color="40,134,135" id="route_873CA5EA-DEC0-48AF-84F1-7B495993B7A6-KM-181.66400492600528-IN-92C56532-AF7C-48D2-B9B4-4D5A33BB954B-KM-1000-IN"/>
	<route edges="3b7a6-1-re 3b7a6-0-re 4244a-0-re 6a6c3-0 ed706-0-re dcd37-2-re dcd37-1-re" color="115,155,181" id="route_873CA5EA-DEC0-48AF-84F1-7B495993B7A6-KM-25-GEGEN-A3DEC360-BC9A-435E-93C6-C96C054DCD37-KM-25-GEGEN"/>
	<route edges="3b7a6-1-re 3b7a6-0-re 4244a-0-re 6a6c3-0 ed706-0-re af2cd-0-re 76c39-2-re 76c39-1-re" color="118,164,247" id="route_873CA5EA-DEC0-48AF-84F1-7B495993B7A6-KM-25-GEGEN-91E0E0C7-3363-46FB-9F30-48B24E076C39-KM-25-GEGEN"/>
	<route edges="3b7a6-1-re 3b7a6-0-re 4244a-0-re 9c667-2-re 9c667-1-re" color="238,54,175" id="route_873CA5EA-DEC0-48AF-84F1-7B495993B7A6-KM-25-GEGEN-198ED85A-69D0-4D40-A33C-5CDC57E9C667-KM-25-GEGEN"/>
	<route edges="99ebb-1 99ebb-2 989b2-2-re 989b2-1-re" color="79,212,139" id="route_6CD3D615-5F8D-4C6B-99D1-A0B1ACE99EBB-KM-86.42029216853058-IN-CE852C84-A815-4084-A0EC-D361714989B2-KM-25-GEGEN"/>
	<route edges="99ebb-1 99ebb-2 a781b-0-re 10b22-0 10b22-1" color="21,154,138" id="route_6CD3D615-5F8D-4C6B-99D1-A0B1ACE99EBB-KM-86.42029216853058-IN-C4A23902-7F11-4275-9ADE-F58377910B22-KM-1453.541904487744-IN"/>
	<route edges="99ebb-1-re 99ebb-0-re e7633-0 e7633-1" color="93,123,222" id="route_6CD3D615-5F8D-4C6B-99D1-A0B1ACE99EBB-KM-25-GEGEN-9012881E-A81A-46C3-B095-526238DE7633-KM-1000-IN"/>
	<route edges="99ebb-1-re 99ebb-0-re e0d47-14-re e0d47-13-re" color="161,227,192" id="route_6CD3D615-5F8D-4C6B-99D1-A0B1ACE99EBB-KM-25-GEGEN-905CF986-2853-4A42-8E97-2F1C4DDE0D47-KM-6000-GEGEN"/>
	<route edges="e7633-1 e7633-2 e7633-3" color="95,168,30" id="route_9012881E-A81A-46C3-B095-526238DE7633-KM-1000-IN-9012881E-A81A-46C3-B095-526238DE7633-KM-2904.2543286491227-IN"/>
	<route edges="e7633-3 e7633-4 a953d-0-re 0757a-0 3b7a6-2-re 3b7a6-1-re" color="64,3,81" id="route_9012881E-A81A-46C3-B095-526238DE7633-KM-2904.2543286491227-IN-873CA5EA-DEC0-48AF-84F1-7B495993B7A6-KM-25-GEGEN"/>
	<route edges="e7633-3 e7633-4 a953d-0-re 0757a-0 a1234-0 68726-0 68726-1" color="243,179,68" id="route_9012881E-A81A-46C3-B095-526238DE7633-KM-2904.2543286491227-IN-5FBA1A0B-75B5-4C98-84FC-C81977E68726-KM-893.3775715190525-IN"/>