<?xml version="1.0" encoding="UTF-8"?>
<routes xmlns:xsi="http://www.w3.org/2001/XMLSchema-instance" xsi:noNamespaceSchemaLocation="http://sumo.dlr.de/xsd/routes_file.xsd">
	<route edges="274dc-1 274dc-2 9a3c7-2-re 9a3c7-1-re" color="160,142,181" id="route_A800854C-B10E-469A-9CF5-80D34AB274DC-KM-321.5762856547864-IN-7B4D0334-467C-4F4D-858C-F7C7E639A3C7-KM-25-GEGEN"/>
	<route edges="274dc-1 274dc-2 4a090-2-re 4a090-1-re" color="113,124,123" id="route_A800854C-B10E-469A-9CF5-80D34AB274DC-KM-321.5762856547864-IN-47E1E588-876D-4354-8A97-85983D44A090-KM-25-GEGEN"/>
	<route edges="274dc-1-re 274dc-0-re c21c1-0 c21c1-1" color="75,209,195" id="route_A800854C-B10E-469A-9CF5-80D34AB274DC-KM-25-GEGEN-78E7B4CC-DB33-481D-BB92-6291694C21C1-KM-852.2588211144425-IN"/>
	<route edges="274dc-1-re 274dc-0-re f0642-0 f0642-1" color="173,166,227" id="route_A800854C-B10E-469A-9CF5-80D34AB274DC-KM-25-GEGEN-600F7E20-6EF8-4334-83C8-B974CA3F0642-KM-165.5616561823125-IN"/>
	<route edges="f0642-1 f0642-2 2ddea-0 2ddea-1" color="43,13,208" id="route_600F7E20-6EF8-4334-83C8-B974CA3F0642-KM-165.5616561823125-IN-D220B1DE-3536-49AE-ACC4-43CBC952DDEA-KM-788.1457216628645-IN"/>
	<route edges="f0642-1 f0642-2 6df86-0 6df86-1" color="209,207,175" id="route_600F7E20-6EF8-4334-83C8-B974CA3F0642-KM-165.5616561823125-IN-6E315A76-B283-4026-A391-C8725C06DF86-KM-238.52550007798908-IN"/>
	<route edges="f0642-1-re f0642-0-re 274dc-0 274dc-1" color="55,111,172" id="route_600F7E20-6EF8-4334-83C8-B974CA3F0642-KM-25-GEGEN-A800854C-B10E-469A-9CF5-80D34AB274DC-KM-321.5762856547864-IN"/>
	<route edges="c21c1-1-re c21c1-0-re 274dc-0 274dc-1" color="30,220,142" id="route_78E7B4CC-DB33-481D-BB92-6291694C21C1-KM-25-GEGEN-A800854C-B10E-469A-9CF5-80D34AB274DC-KM-321.5762856547864-IN"/>
	<route edges="2ddea-1 2ddea-2 959a4-0 959a4-1" color="118,179,83" id="route_D220B1DE-3536-49AE-ACC4-43CBC952DDEA-KM-788.1457216628645-IN-DB39AE30-C8D3-4291-BDD7-989BB84959A4-KM-169.7673894741766-IN"/>
	<route edges="2ddea-1-re 2ddea-0-re f0642-2-re f0642-1-re" color="230,119,157" id="route_D220B1DE-3536-49AE-ACC4-43CBC952DDEA-KM-25-GEGEN-600F7E20-6EF8-4334-83C8-B974CA3F0642-KM-25-GEGEN"/>
	<route edges="6df86-1 6df86-2 f293b-0 2c52a-2-re 2c52a-1-re" color="68,226,43" id="route_6E315A76-B283-4026-A391-C8725C06DF86-KM-238.52550007798908-IN-AAA80CDC-B901-4F9F-9442-5C19CA42C52A-KM-25-GEGEN"/>
	<route edges="6df86-1 6df86-2 f293b-0 c5404-2-re c5404-1-re" color="18,194,33" id="route_6E315A76-B283-4026-A391-C8725C06DF86-KM-238.52550007798908-IN-45600DB6-7E25-4A52-AC08-914FF0EC5404-KM-25-GEGEN"/>
	<route edges="6df86-1-re 6df86-0-re f0642-2-re f0642-1-re" color="107,179,41" id="route_6E315A76-B283-4026-A391-C8725C06DF86-KM-25-GEGEN-600F7E20-6EF8-4334-83C8-B974CA3F0642-KM-25-GEGEN"/>
	<route edges="959a4-1 959a4-2 d1a04-0 d1a04-1" color="236,195,194" id="route_DB39AE30-C8D3-4291-BDD7-989BB84959A4-KM-169.7673894741766-IN-FEC55053-6E53-45C3-B198-0D4EDA5D1A04-KM-684.7733628877847-IN"/>
	<route edges="959a4-1-re 959a4-0-re 2ddea-2-re 2ddea-1-re" color="187,7,144" id="route_DB39AE30-C8D3-4291-BDD7-989BB84959A4-KM-25-GEGEN-D220B1DE-3536-49AE-ACC4-43CBC952DDEA-KM-25-GEGEN"/>
	<route edges="c4427-1-re c4427-0-re 959a4-0 959a4-1" color="167,55,85" id="route_B6976FBC-76F4-4277-9F3E-B2E596AC4427-KM-25-GEGEN-DB39AE30-C8D3-4291-BDD7-989BB84959A4-KM-169.7673894741766-IN"/>
	<route edges="d1a04-1 d1a04-2 9226d-0-re 89c47-0 89c47-1" color="204,12,106" id="route_FEC55053-6E53-45C3-B198-0D4EDA5D1A04-KM-684.7733628877847-IN-8935DE43-D45A-4DCB-8CF1-000755B89C47-KM-1671.7895552905081-IN"/>
	<route edges="d1a04-1 d1a04-2 9226d-0-re f9521-0 f9521-1" color="179,234,137" id="route_FEC55053-6E53-45C3-B198-0D4EDA5D1A04-KM-684.7733628877847-IN-38EEA395-B261-4D1F-8A12-2D19BDDF9521-KM-1452.8979874733736-IN"/>
	<route edges="d1a04-1 d1a04-2 460e4-0 460e4-1" color="229,209,123" id="route_FEC55053-6E53-45C3-B198-0D4EDA5D1A04-KM-684.7733628877847-IN-0C0FB3EE-CBA4-4ACF-8054-D9507F1460E4-KM-268.8995167296298-IN"/>
	<route edges="d1a04-1-re d1a04-0-re 959a4-2-re 959a4-1-re" color="147,194,173" id="route_FEC55053-6E53-45C3-B198-0D4EDA5D1A04-KM-25-GEGEN-DB39AE30-C8D3-4291-BDD7-989BB84959A4-KM-25-GEGEN"/>
	<route edges="b8eb1-1-re b8eb1-0-re d1a04-0 d1a04-1" color="196,224,166" id="route_55ACA8D0-B810-4473-A460-4F3A963B8EB1-KM-25-GEGEN-FEC55053-6E53-45C3-B198-0D4EDA5D1A04-KM-684.7733628877847-IN"/>
	<route edges="d2b86-1 d2b86-2 24f4b-0 24f4b-1" color="205,224,157" id="route_F2721E2E-DB32-4C0B-BB48-A643B61D2B86-KM-254.45431792963808-IN-8644EB71-4911-4C8E-B156-4B931E624F4B-KM-1908.0650690078241-IN"/>
	<route edges="d2b86-1-re d2b86-0-re da8b3-0 eb5f8-2-re eb5f8-1-re" color="112,187,38" id="route_F2721E2E-DB32-4C0B-BB48-A643B61D2B86-KM-25-GEGEN-28AEEBA7-2517-4C80-84A6-55212C7EB5F8-KM-25-GEGEN"/>
	<route edges="d2b86-1-re d2b86-0-re da8b3-0 89c47-2-re 89c47-1-re" color="248,47,16" id="route_F2721E2E-DB32-4C0B-BB48-A643B61D2B86-KM-25-GEGEN-8935DE43-D45A-4DCB-8CF1-000755B89C47-KM-25-GEGEN"/>
	<route edges="29af9-2 29af9-3 29af9-4" color="137,88,42" id="route_5F672916-DF08-4751-B2F8-FED51B329AF9-KM-1010.0-IN-5F672916-DF08-4751-B2F8-FED51B329AF9-KM-2010.0-IN"/>
	<route edges="29af9-4 29af9-5 29af9-6" color="94,112,18" id="route_5F672916-DF08-4751-B2F8-FED51B329AF9-KM-2010.0-IN-5F672916-DF08-4751-B2F8-FED51B329AF9-KM-3010.0-IN"/>
	<route edges="29af9-6 29af9-7 29af9-8" color="74,157,21" id="route_5F672916-DF08-4751-B2F8-FED51B329AF9-KM-3010.0-IN-5F672916-DF08-4751-B2F8-FED51B329AF9-KM-4010.0-IN"/>
	<route edges="29af9-8 29af9-9" color="42,129,219" id="route_5F672916-DF08-4751-B2F8-FED51B329AF9-KM-4010.0-IN-5F672916-DF08-4751-B2F8-FED51B329AF9-KM-5560.253303703657-IN"/>
	<route edges="29af9-9 29af9-10 d8c47-5-re d8c47-4-re d8c47-3-re" color="114,234,119" id="route_5F672916-DF08-4751-B2F8-FED51B329AF9-KM-5560.253303703657-IN-14CB0711-D373-465D-B6F3-C227BACD8C47-KM-991.0-GEGEN"/>
	<route edges="29af9-9 29af9-10 ce5c2-2-re ce5c2-1-re" color="184,21,140" id="route_5F672916-DF08-4751-B2F8-FED51B329AF9-KM-5560.253303703657-IN-9DAC9F6A-12E1-4719-97A9-79B7989CE5C2-KM-25-GEGEN"/>
	<route edges="29af9-8-re 29af9-7-re 29af9-6-re" color="11,145,105" id="route_5F672916-DF08-4751-B2F8-FED51B329AF9-KM-3990.0-GEGEN-5F672916-DF08-4751-B2F8-FED51B329AF9-KM-2990.0-GEGEN"/>
	<route edges="29af9-6-re 29af9-5-re 29af9-4-re" color="125,94,180" id="route_5F672916-DF08-4751-B2F8-FED51B329AF9-KM-2990.0-GEGEN-5F672916-DF08-4751-B2F8-FED51B329AF9-KM-1990.0-GEGEN"/>
	<route edges="29af9-4-re 29af9-3-re 29af9-2-re" color="187,154,32" id="route_5F672916-DF08-4751-B2F8-FED51B329AF9-KM-1990.0-GEGEN-5F672916-DF08-4751-B2F8-FED51B329AF9-KM-990.0-GEGEN"/>
	<route edges="29af9-2-re 29af9-1-re" color="207,154,26" id="route_5F672916-DF08-4751-B2F8-FED51B329AF9-KM-990.0-GEGEN-5F672916-DF08-4751-B2F8-FED51B329AF9-KM-25-GEGEN"/>
	<route edges="29af9-1-re 29af9-0-re da8b3-0 eb5f8-2-re eb5f8-1-re" color="84,13,254" id="route_5F672916-DF08-4751-B2F8-FED51B329AF9-KM-25-GEGEN-28AEEBA7-2517-4C80-84A6-55212C7EB5F8-KM-25-GEGEN"/>
	<route edges="29af9-1-re 29af9-0-re da8b3-0 89c47-2-re 89c47-1-re" color="161,224,8" id="route_5F672916-DF08-4751-B2F8-FED51B329AF9-KM-25-GEGEN-8935DE43-D45A-4DCB-8CF1-000755B89C47-KM-25-GEGEN"/>
	<route edges="639f6-1 639f6-2 c8c40-0-re a9420-2-re a9420-1-re" color="188,181,65" id="route_91D0DFEF-D756-4450-90D0-F6887E5639F6-KM-463.81731618508263-IN-5EAB0A59-5D39-45E4-86EF-2A6D0CEA9420-KM-25-GEGEN"/>
	<route edges="639f6-1 639f6-2 c8c40-0-re f9521-2-re f9521-1-re" color="64,213,79" id="route_91D0DFEF-D756-4450-90D0-F6887E5639F6-KM-463.81731618508263-IN-38EEA395-B261-4D1F-8A12-2D19BDDF9521-KM-25-GEGEN"/>
	<route edges="639f6-1-re 639f6-0-re 24f4b-0 24f4b-1" color="18,229,34" id="route_91D0DFEF-D756-4450-90D0-F6887E5639F6-KM-25-GEGEN-8644EB71-4911-4C8E-B156-4B931E624F4B-KM-1908.0650690078241-IN"/>
	<route edges="24f4b-1 24f4b-2 9c671-0 9c671-1" color="96,5,15" id="route_8644EB71-4911-4C8E-B156-4B931E624F4B-KM-1908.0650690078241-IN-E4E15BDB-241A-495B-8044-C03031C9C671-KM-164.87032984724672-IN"/>
	<route edges="24f4b-1 24f4b-2 49712-0 6e8d0-0 22407-0-re 38b10-0 4dbea-0 4dbea-1" color="153,43,102" id="route_8644EB71-4911-4C8E-B156-4B931E624F4B-KM-1908.0650690078241-IN-314646B2-E853-4C8E-A6AF-46505664DBEA-KM-181.66400492600528-IN"/>
	<route edges="24f4b-1 24f4b-2 49712-0 6e8d0-0 22407-0-re 38b10-0 abe83-0 abe83-1" color="109,187,195" id="route_8644EB71-4911-4C8E-B156-4B931E624F4B-KM-1908.0650690078241-IN-06B3A265-3298-485F-8C04-660FBCFABE83-KM-340.8087986779541-IN"/>
	<route edges="24f4b-1 24f4b-2 49712-0 6e8d0-0 957b5-0 957b5-1" color="4,47,48" id="route_8644EB71-4911-4C8E-B156-4B931E624F4B-KM-1908.0650690078241-IN-23B039E9-6BD4-4D11-93C7-3F88EBC957B5-KM-631.7357322698663-IN"/>
	<route edges="24f4b-1-re 24f4b-0-re 639f6-0 639f6-1" color="224,252,58" id="route_8644EB71-4911-4C8E-B156-4B931E624F4B-KM-25-GEGEN-91D0DFEF-D756-4450-90D0-F6887E5639F6-KM-463.81731618508263-IN"/>
	<route edges="24f4b-1-re 24f4b-0-re d2b86-2-re d2b86-1-re" color="16,37,140" id="route_8644EB71-4911-4C8E-B156-4B931E624F4B-KM-25-GEGEN-F2721E2E-DB32-4C0B-BB48-A643B61D2B86-KM-25-GEGEN"/>
	<route edges="41acf-2 41acf-3" color="189,169,192" id="route_812E000D-911E-4977-9D58-20D2F9841ACF-KM-1010.0-IN-812E000D-911E-4977-9D58-20D2F9841ACF-KM-2968.0134948223827-IN"/>
	<route edges="41acf-3 41acf-4 f7740-0 f7740-1" color="115,21,253" id="route_812E000D-911E-4977-9D58-20D2F9841ACF-KM-2968.0134948223827-IN-06793584-C927-408B-9F4B-B942048F7740-KM-1453.541904487744-IN"/>
	<route edges="41acf-2-re 41acf-1-re" color="135,208,92" id="route_812E000D-911E-4977-9D58-20D2F9841ACF-KM-990.0-GEGEN-812E000D-911E-4977-9D58-20D2F9841ACF-KM-25-GEGEN"/>
	<route edges="41acf-1-re 41acf-0-re bebe6-0 abe83-2-re abe83-1-re" color="95,173,38" id="route_812E000D-911E-4977-9D58-20D2F9841ACF-KM-25-GEGEN-06B3A265-3298-485F-8C04-660FBCFABE83-KM-25-GEGEN"/>
	<route edges="41acf-1-re 41acf-0-re bebe6-0 b2f4e-0 21967-0-re 8e427-0 4dbea-2-re 4dbea-1-re" color="192,228,88" id="route_812E000D-911E-4977-9D58-20D2F9841ACF-KM-25-GEGEN-314646B2-E853-4C8E-A6AF-46505664DBEA-KM-25-GEGEN"/>
	<route edges="41acf-1-re 41acf-0-re bebe6-0 b2f4e-0 21967-0-re 8e427-0 e8087-0 f38df-0 f38df-1" color="239,228,210" id="route_812E000D-911E-4977-9D58-20D2F9841ACF-KM-25-GEGEN-F8E3DED0-5832-4E0E-8377-BEC9B46F38DF-KM-893.3775715190525-IN"/>
	<route edges="41acf-1-re 41acf-0-re bebe6-0 b2f4e-0 21967-0-re 8e427-0 e8087-0 acd19-0 1b69a-2-re 1b69a-1-re" color="114,148,249" id="route_812E000D-911E-4977-9D58-20D2F9841ACF-KM-25-GEGEN-95BE8DC3-7708-49C4-9423-71BB6271B69A-KM-25-GEGEN"/>
	<route edges="41acf-1-re 41acf-0-re bebe6-0 b2f4e-0 21967-0-re 8e427-0 e8087-0 acd19-0 837b0-0 889b8-2-re 889b8-1-re" color="137,98,50" id="route_812E000D-911E-4977-9D58-20D2F9841ACF-KM-25-GEGEN-0C890AEE-1BA4-4269-8EF1-939CEEA889B8-KM-25-GEGEN"/>
	<route edges="ee99d-1 ee99d-2 e1390-2-re e1390-1-re" color="188,62,167" id="route_6C80FE95-4F43-42DC-BA2A-B1A8DCBEE99D-KM-96.47358751756049-IN-056578F9-713C-40B1-9588-679E257E1390-KM-25-GEGEN"/>
	<route edges="ee99d-1 ee99d-2 107da-0 107da-1" color="222,244,160" id="route_6C80FE95-4F43-42DC-BA2A-B1A8DCBEE99D-KM-96.47358751756049-IN-597A1EE8-F00F-407C-B21A-48EA9C8107DA-KM-914.6100386400316-IN"/>
	<route edges="ee99d-1-re ee99d-0-re 14b58-0 14b58-1" color="72,80,84" id="route_6C80FE95-4F43-42DC-BA2A-B1A8DCBEE99D-KM-25-GEGEN-77DE6D96-DA10-4661-AB05-ED679C214B58-KM-196.352947606197-IN"/>
	<route edges="14b58-1 14b58-2 13fd9-2-re 13fd9-1-re" color="56,188,116" id="route_77DE6D96-DA10-4661-AB05-ED679C214B58-KM-196.352947606197-IN-54A1941E-22DB-4144-B279-D118CA113FD9-KM-25-GEGEN"/>
	<route edges="14b58-1 14b58-2 f0789-2-re f0789-1-re" color="84,54,116" id="route_77DE6D96-DA10-4661-AB05-ED679C214B58-KM-196.352947606197-IN-D6EF5055-EAE2-440E-A147-B980622F0789-KM-25-GEGEN"/>
	<route edges="14b58-1-re 14b58-0-re ee99d-0 ee99d-1" color="131,96,137" id="route_77DE6D96-DA10-4661-AB05-ED679C214B58-KM-25-GEGEN-6C80FE95-4F43-42DC-BA2A-B1A8DCBEE99D-KM-96.47358751756049-IN"/>
	<route edges="14b58-1-re 14b58-0-re 9d62b-0 ae35c-0 37325-0 37325-1" color="240,31,48" id="route_77DE6D96-DA10-4661-AB05-ED679C214B58-KM-25-GEGEN-F96B9446-6A98-4F58-8A01-87E471E37325-KM-103.04561740430805-IN"/>
	<route edges="14b58-1-re 14b58-0-re 9d62b-0 ae35c-0 95e11-2-re 95e11-1-re" color="61,208,235" id="route_77DE6D96-DA10-4661-AB05-ED679C214B58-KM-25-GEGEN-7114E608-FDEE-40B2-8C22-018203195E11-KM-25-GEGEN"/>
	<route edges="14b58-1-re 14b58-0-re 9d62b-0 5c49d-0 5c49d-1" color="74,19,166" id="route_77DE6D96-DA10-4661-AB05-ED679C214B58-KM-25-GEGEN-629F0EC8-1A34-4CCB-A651-7D033535C49D-KM-1077.9134160895494-IN"/>
	<route edges="5c49d-1 5c49d-2 2a6d8-0 91129-0 1aed3-0 1aed3-1" color="237,206,153" id="route_629F0EC8-1A34-4CCB-A651-7D033535C49D-KM-1077.9134160895494-IN-9E85D8B5-D980-4482-BD2A-A1443BC1AED3-KM-455.0663329602517-IN"/>
	<route edges="5c49d-1-re 5c49d-0-re 9d62b-0-re 14b58-0 14b58-1" color="118,245,176" id="route_629F0EC8-1A34-4CCB-A651-7D033535C49D-KM-25-GEGEN-77DE6D96-DA10-4661-AB05-ED679C214B58-KM-196.352947606197-IN"/>
	<route edges="95e11-1 95e11-2 ae35c-0-re 9d62b-0-re 14b58-0 14b58-1" color="118,79,103" id="route_7114E608-FDEE-40B2-8C22-018203195E11-KM-1049.2555641663412-IN-77DE6D96-DA10-4661-AB05-ED679C214B58-KM-196.352947606197-IN"/>
	<route edges="95e11-1-re 95e11-0-re 91129-0 1aed3-0 1aed3-1" color="79,88,218" id="route_7114E608-FDEE-40B2-8C22-018203195E11-KM-25-GEGEN-9E85D8B5-D980-4482-BD2A-A1443BC1AED3-KM-455.0663329602517-IN"/>
	<route edges="1aed3-1 1aed3-2 252f9-0 252f9-1" color="210,17,66" id="route_9E85D8B5-D980-4482-BD2A-A1443BC1AED3-KM-455.0663329602517-IN-9FFBB60E-889E-4088-9C64-BE04C60252F9-KM-90.49227411094549-IN"/>
	<route edges="1aed3-1 1aed3-2 1a7dc-0 1a7dc-1" color="16,26,77" id="route_9E85D8B5-D980-4482-BD2A-A1443BC1AED3-KM-455.0663329602517-IN-DF02848E-547C-4857-B450-6A2B0FC1A7DC-KM-79.28485462572691-IN"/>
	<route edges="1aed3-1-re 1aed3-0-re 91129-0-re 2a6d8-0-re 29fb9-0 72c09-2-re 72c09-1-re" color="223,95,208" id="route_9E85D8B5-D980-4482-BD2A-A1443BC1AED3-KM-25-GEGEN-227E57FA-2327-4C09-AAA8-51414AF72C09-KM-25-GEGEN"/>
	<route edges="1aed3-1-re 1aed3-0-re 91129-0-re 2a6d8-0-re 5c49d-2-re 5c49d-1-re" color="22,74,218" id="route_9E85D8B5-D980-4482-BD2A-A1443BC1AED3-KM-25-GEGEN-629F0EC8-1A34-4CCB-A651-7D033535C49D-KM-25-GEGEN"/>
	<route edges="1aed3-1-re 1aed3-0-re 91129-0-re 95e11-0 95e11-1" color="168,181,244" id="route_9E85D8B5-D980-4482-BD2A-A1443BC1AED3-KM-25-GEGEN-7114E608-FDEE-40B2-8C22-018203195E11-KM-1049.2555641663412-IN"/>
	<route edges="1aed3-1-re 1aed3-0-re e0826-0 dc4da-2-re dc4da-1-re" color="220,142,204" id="route_9E85D8B5-D980-4482-BD2A-A1443BC1AED3-KM-25-GEGEN-89321442-5C9C-49AF-8C64-B05E2BDDC4DA-KM-25-GEGEN"/>
	<route edges="1aed3-1-re 1aed3-0-re e0826-0 717b6-0 3995f-2-re 3995f-1-re" color="1,23,213" id="route_9E85D8B5-D980-4482-BD2A-A1443BC1AED3-KM-25-GEGEN-BA5F3B6A-2568-4577-ADAD-4DD33E23995F-KM-25-GEGEN"/>
	<route edges="1aed3-1-re 1aed3-0-re e0826-0 717b6-0 85958-0-re 1b9bc-0 107da-2-re 107da-1-re" color="157,156,216" id="route_9E85D8B5-D980-4482-BD2A-A1443BC1AED3-KM-25-GEGEN-597A1EE8-F00F-407C-B21A-48EA9C8107DA-KM-25-GEGEN"/>
	<route edges="1aed3-1-re 1aed3-0-re e0826-0 717b6-0 85958-0-re 1b9bc-0 ccade-2-re ccade-1-re" color="41,228,152" id="route_9E85D8B5-D980-4482-BD2A-A1443BC1AED3-KM-25-GEGEN-F557D443-6032-44BF-A0F3-395D348CCADE-KM-25-GEGEN"/>
	<route edges="1a7dc-1 1a7dc-2 8ee6d-0 8ee6d-1" color="15,9,94" id="route_DF02848E-547C-4857-B450-6A2B0FC1A7DC-KM-79.28485462572691-IN-814FA46D-B937-4EF9-A0A4-2898C4C8EE6D-KM-984.5542787261779-IN"/>
	<route edges="1a7dc-1-re 1a7dc-0-re 1aed3-2-re 1aed3-1-re" color="234,102,150" id="route_DF02848E-547C-4857-B450-6A2B0FC1A7DC-KM-25-GEGEN-9E85D8B5-D980-4482-BD2A-A1443BC1AED3-KM-25-GEGEN"/>
	<route edges="252f9-1 252f9-2 52b54-0 52b54-1" color="192,86,25" id="route_9FFBB60E-889E-4088-9C64-BE04C60252F9-KM-90.49227411094549-IN-8702A9D2-6B71-4807-993E-21D34AC52B54-KM-973.5630285209269-IN"/>
	<route edges="252f9-1-re 252f9-0-re 1aed3-2-re 1aed3-1-re" color="80,2,50" id="route_9FFBB60E-889E-4088-9C64-BE04C60252F9-KM-25-GEGEN-9E85D8B5-D980-4482-BD2A-A1443BC1AED3-KM-25-GEGEN"/>
	<route edges="8ee6d-1 8ee6d-2 9c99c-0 9c99c-1" color="193,28,249" id="route_814FA46D-B937-4EF9-A0A4-2898C4C8EE6D-KM-984.5542787261779-IN-146CCD0F-190E-485A-9F35-BCBC5E39C99C-KM-81.24463641442591-IN"/>
	<route edges="8ee6d-1-re 8ee6d-0-re 848a1-0 848a1-1" color="237,247,223" id="route_814FA46D-B937-4EF9-A0A4-2898C4C8EE6D-KM-25-GEGEN-B556F789-4E46-4EBC-BF73-F4B9FA8848A1-KM-101.34410270980774-IN"/>
	<route edges="8ee6d-1-re 8ee6d-0-re 1a7dc-2-re 1a7dc-1-re" color="60,177,84" id="route_814FA46D-B937-4EF9-A0A4-2898C4C8EE6D-KM-25-GEGEN-DF02848E-547C-4857-B450-6A2B0FC1A7DC-KM-25-GEGEN"/>
	<route edges="848a1-1 848a1-2 bfb11-0 bfb11-1" color="206,226,221" id="route_B556F789-4E46-4EBC-BF73-F4B9FA8848A1-KM-101.34410270980774-IN-CB458A7A-3A23-4D58-B55A-BD2CF34BFB11-KM-173.08552154511705-IN"/>
	<route edges="848a1-1-re 848a1-0-re 8ee6d-0 8ee6d-1" color="150,215,135" id="route_B556F789-4E46-4EBC-BF73-F4B9FA8848A1-KM-25-GEGEN-814FA46D-B937-4EF9-A0A4-2898C4C8EE6D-KM-984.5542787261779-IN"/>
	<route edges="7e9af-1 7e9af-2" color="94,39,121" id="route_6956D4CA-301E-412C-875E-9C2F3317E9AF-KM-11.0-IN-6956D4CA-301E-412C-875E-9C2F3317E9AF-KM-1246.872029481161-IN"/>
	<route edges="7e9af-2 7e9af-3 63415-0 63415-1" color="147,55,221" id="route_6956D4CA-301E-412C-875E-9C2F3317E9AF-KM-1246.872029481161-IN-8C226701-F7E3-4CE9-90E8-0DEFED863415-KM-195.21324611100448-IN"/>
	<route edges="d83eb-1 d83eb-2 7a5b1-0 9a3c7-0 9a3c7-1" color="163,59,72" id="route_D9022489-4D6B-48ED-AC98-136A716D83EB-KM-1615.0764173282626-IN-7B4D0334-467C-4F4D-858C-F7C7E639A3C7-KM-136.72691529462978-IN"/>
	<route edges="d83eb-1 d83eb-2 7a5b1-0 a6b51-0 a6b51-1" color="168,208,43" id="route_D9022489-4D6B-48ED-AC98-136A716D83EB-KM-1615.0764173282626-IN-2A8D1C9F-339E-4C8E-9E87-18ED170A6B51-KM-937.1466831358305-IN"/>
	<route edges="d83eb-1-re d83eb-0-re b7d00-0 3e90a-2-re 3e90a-1-re" color="4,206,208" id="route_D9022489-4D6B-48ED-AC98-136A716D83EB-KM-25-GEGEN-7B2779CA-DAEC-402D-8A3B-FE0C01B3E90A-KM-25-GEGEN"/>
	<route edges="d83eb-1-re d83eb-0-re b7d00-0 d861b-0-re b2e03-2-re b2e03-1-re" color="209,50,45" id="route_D9022489-4D6B-48ED-AC98-136A716D83EB-KM-25-GEGEN-4D99BEDC-4031-4C18-96B6-ABF8FF4B2E03-KM-25-GEGEN"/>
	<route edges="7e011-2 7e011-3 7e011-4" color="218,183,54" id="route_97BB7366-2F37-45A9-B05A-7D621877E011-KM-1010.0-IN-97BB7366-2F37-45A9-B05A-7D621877E011-KM-2010.0-IN"/>
	<route edges="7e011-4 7e011-5" color="85,181,28" id="route_97BB7366-2F37-45A9-B05A-7D621877E011-KM-2010.0-IN-97BB7366-2F37-45A9-B05A-7D621877E011-KM-3170.0135601901507-IN"/>
	<route edges="7e011-5 7e011-6 09db0-0 09db0-1" color="84,84,170" id="route_97BB7366-2F37-45A9-B05A-7D621877E011-KM-3170.0135601901507-IN-DBA3FC2C-C4B4-46F5-9206-A3253ED09DB0-KM-1145.0075044737318-IN"/>
	<route edges="7e011-5 7e011-6 e92f1-0 e92f1-1" color="137,204,112" id="route_97BB7366-2F37-45A9-B05A-7D621877E011-KM-3170.0135601901507-IN-14EC0EF8-ABD0-450C-93B9-B469F52E92F1-KM-199.43697602843812-IN"/>
	<route edges="7e011-4-re 7e011-3-re 7e011-2-re" color="92,125,189" id="route_97BB7366-2F37-45A9-B05A-7D621877E011-KM-1990.0-GEGEN-97BB7366-2F37-45A9-B05A-7D621877E011-KM-990.0-GEGEN"/>
	<route edges="7e011-2-re 7e011-1-re" color="75,49,97" id="route_97BB7366-2F37-45A9-B05A-7D621877E011-KM-990.0-GEGEN-97BB7366-2F37-45A9-B05A-7D621877E011-KM-25-GEGEN"/>
	<route edges="7e011-1-re 7e011-0-re b7d00-0 3e90a-2-re 3e90a-1-re" color="69,117,255" id="route_97BB7366-2F37-45A9-B05A-7D621877E011-KM-25-GEGEN-7B2779CA-DAEC-402D-8A3B-FE0C01B3E90A-KM-25-GEGEN"/>
	<route edges="7e011-1-re 7e011-0-re b7d00-0 d861b-0-re b2e03-2-re b2e03-1-re" color="122,76,142" id="route_97BB7366-2F37-45A9-B05A-7D621877E011-KM-25-GEGEN-4D99BEDC-4031-4C18-96B6-ABF8FF4B2E03-KM-25-GEGEN"/>
	<route edges="d3853-1 d3853-2 7650f-0 7650f-1 7650f-2" color="181,61,54" id="route_BDC90C60-2CA2-49F6-9BCF-EF05004D3853-KM-152.73211692197054-IN-5DE7A84D-7F5E-48EE-BB6F-B98997F7650F-KM-1010.0-IN"/>
	<route edges="d3853-1-re d3853-0-re 7a5b1-0 9a3c7-0 9a3c7-1" color="25,206,208" id="route_BDC90C60-2CA2-49F6-9BCF-EF05004D3853-KM-25-GEGEN-7B4D0334-467C-4F4D-858C-F7C7E639A3C7-KM-136.72691529462978-IN"/>
	<route edges="d3853-1-re d3853-0-re 7a5b1-0 a6b51-0 a6b51-1" color="42,80,67" id="route_BDC90C60-2CA2-49F6-9BCF-EF05004D3853-KM-25-GEGEN-2A8D1C9F-339E-4C8E-9E87-18ED170A6B51-KM-937.1466831358305-IN"/>
	<route edges="a6b51-1 a6b51-2 f293b-0 2c52a-2-re 2c52a-1-re" color="172,168,183" id="route_2A8D1C9F-339E-4C8E-9E87-18ED170A6B51-KM-937.1466831358305-IN-AAA80CDC-B901-4F9F-9442-5C19CA42C52A-KM-25-GEGEN"/>
	<route edges="a6b51-1 a6b51-2 f293b-0 c5404-2-re c5404-1-re" color="97,226,153" id="route_2A8D1C9F-339E-4C8E-9E87-18ED170A6B51-KM-937.1466831358305-IN-45600DB6-7E25-4A52-AC08-914FF0EC5404-KM-25-GEGEN"/>
	<route edges="a6b51-1-re a6b51-0-re 7a5b1-0-re d83eb-2-re d83eb-1-re" color="59,249,21" id="route_2A8D1C9F-339E-4C8E-9E87-18ED170A6B51-KM-25-GEGEN-D9022489-4D6B-48ED-AC98-136A716D83EB-KM-25-GEGEN"/>
	<route edges="a6b51-1-re a6b51-0-re 7a5b1-0-re d3853-0 d3853-1" color="163,91,120" id="route_2A8D1C9F-339E-4C8E-9E87-18ED170A6B51-KM-25-GEGEN-BDC90C60-2CA2-49F6-9BCF-EF05004D3853-KM-152.73211692197054-IN"/>
	<route edges="9a3c7-1 9a3c7-2 274dc-2-re 274dc-1-re" color="13,50,250" id="route_7B4D0334-467C-4F4D-858C-F7C7E639A3C7-KM-136.72691529462978-IN-A800854C-B10E-469A-9CF5-80D34AB274DC-KM-25-GEGEN"/>
	<route edges="9a3c7-1-re 9a3c7-0-re 7a5b1-0-re d83eb-2-re d83eb-1-re" color="236,94,47" id="route_7B4D0334-467C-4F4D-858C-F7C7E639A3C7-KM-25-GEGEN-D9022489-4D6B-48ED-AC98-136A716D83EB-KM-25-GEGEN"/>
	<route edges="9a3c7-1-re 9a3c7-0-re 7a5b1-0-re d3853-0 d3853-1" color="203,34,71" id="route_7B4D0334-467C-4F4D-858C-F7C7E639A3C7-KM-25-GEGEN-BDC90C60-2CA2-49F6-9BCF-EF05004D3853-KM-152.73211692197054-IN"/>
	<route edges="30f50-1 30f50-2 c8fe7-4-re c8fe7-3-re c8fe7-2-re" color="139,188,2" id="route_90411319-F89B-40DF-91D9-AB5D3AB30F50-KM-848.6990357234663-IN-9D448E0F-88E3-49C2-8905-6327ECAC8FE7-KM-990.0-GEGEN"/>
	<route edges="30f50-1-re 30f50-0-re 1e138-0 1e138-1 1e138-2" color="151,1,224" id="route_90411319-F89B-40DF-91D9-AB5D3AB30F50-KM-25-GEGEN-CB0352C3-F88C-44E8-9B9F-E23270D1E138-KM-1010.0-IN"/>
	<route edges="1e138-2 1e138-3 1e138-4" color="27,35,50" id="route_CB0352C3-F88C-44E8-9B9F-E23270D1E138-KM-1010.0-IN-CB0352C3-F88C-44E8-9B9F-E23270D1E138-KM-2010.0-IN"/>
	<route edges="1e138-4 1e138-5 1e138-6" color="92,193,20" id="route_CB0352C3-F88C-44E8-9B9F-E23270D1E138-KM-2010.0-IN-CB0352C3-F88C-44E8-9B9F-E23270D1E138-KM-3010.0-IN"/>
	<route edges="1e138-6 1e138-7 1e138-8" color="193,6,84" id="route_CB0352C3-F88C-44E8-9B9F-E23270D1E138-KM-3010.0-IN-CB0352C3-F88C-44E8-9B9F-E23270D1E138-KM-4010.0-IN"/>
	<route edges="1e138-8 1e138-9 1e138-10" color="18,68,114" id="route_CB0352C3-F88C-44E8-9B9F-E23270D1E138-KM-4010.0-IN-CB0352C3-F88C-44E8-9B9F-E23270D1E138-KM-5010.0-IN"/>
	<route edges="1e138-10 1e138-11 1e138-12" color="76,144,196" id="route_CB0352C3-F88C-44E8-9B9F-E23270D1E138-KM-5010.0-IN-CB0352C3-F88C-44E8-9B9F-E23270D1E138-KM-6010.0-IN"/>
	<route edges="1e138-12 1e138-13" color="173,31,221" id="route_CB0352C3-F88C-44E8-9B9F-E23270D1E138-KM-6010.0-IN-CB0352C3-F88C-44E8-9B9F-E23270D1E138-KM-7625.423054083232-IN"/>
	<route edges="1e138-13 1e138-14 e2ed8-0 e2ed8-1" color="251,233,132" id="route_CB0352C3-F88C-44E8-9B9F-E23270D1E138-KM-7625.423054083232-IN-997585D9-C21F-40A0-ADF9-3FAB4D2E2ED8-KM-86.42029216853058-IN"/>
	<route edges="1e138-12-re 1e138-11-re 1e138-10-re" color="223,188,71" id="route_CB0352C3-F88C-44E8-9B9F-E23270D1E138-KM-5990.0-GEGEN-CB0352C3-F88C-44E8-9B9F-E23270D1E138-KM-4990.0-GEGEN"/>
	<route edges="1e138-10-re 1e138-9-re 1e138-8-re" color="219,207,139" id="route_CB0352C3-F88C-44E8-9B9F-E23270D1E138-KM-4990.0-GEGEN-CB0352C3-F88C-44E8-9B9F-E23270D1E138-KM-3990.0-GEGEN"/>
	<route edges="1e138-8-re 1e138-7-re 1e138-6-re" color="76,35,108" id="route_CB0352C3-F88C-44E8-9B9F-E23270D1E138-KM-3990.0-GEGEN-CB0352C3-F88C-44E8-9B9F-E23270D1E138-KM-2990.0-GEGEN"/>
	<route edges="1e138-6-re 1e138-5-re 1e138-4-re" color="225,146,130" id="route_CB0352C3-F88C-44E8-9B9F-E23270D1E138-KM-2990.0-GEGEN-CB0352C3-F88C-44E8-9B9F-E23270D1E138-KM-1990.0-GEGEN"/>
	<route edges="1e138-4-re 1e138-3-re 1e138-2-re" color="10,102,218" id="route_CB0352C3-F88C-44E8-9B9F-E23270D1E138-KM-1990.0-GEGEN-CB0352C3-F88C-44E8-9B9F-E23270D1E138-KM-990.0-GEGEN"/>
	<route edges="1e138-2-re 1e138-1-re" color="218,105,227" id="route_CB0352C3-F88C-44E8-9B9F-E23270D1E138-KM-990.0-GEGEN-CB0352C3-F88C-44E8-9B9F-E23270D1E138-KM-25-GEGEN"/>
	<route edges="1e138-1-re 1e138-0-re 00a0c-0 00a0c-1" color="41,124,15" id="route_CB0352C3-F88C-44E8-9B9F-E23270D1E138-KM-25-GEGEN-BBFC0A6B-87F6-45CF-8C3F-145BE0D00A0C-KM-127.01052255433262-IN"/>
	<route edges="1e138-1-re 1e138-0-re 30f50-0 30f50-1" color="5,196,105" id="route_CB0352C3-F88C-44E8-9B9F-E23270D1E138-KM-25-GEGEN-90411319-F89B-40DF-91D9-AB5D3AB30F50-KM-848.6990357234663-IN"/>
	<route edges="00a0c-1 00a0c-2 63415-2-re 63415-1-re" color="45,14,202" id="route_BBFC0A6B-87F6-45CF-8C3F-145BE0D00A0C-KM-127.01052255433262-IN-8C226701-F7E3-4CE9-90E8-0DEFED863415-KM-25-GEGEN"/>
	<route edges="00a0c-1-re 00a0c-0-re 1e138-0 1e138-1 1e138-2" color="65,224,113" id="route_BBFC0A6B-87F6-45CF-8C3F-145BE0D00A0C-KM-25-GEGEN-CB0352C3-F88C-44E8-9B9F-E23270D1E138-KM-1010.0-IN"/>
	<route edges="9c671-1 9c671-2 38b10-0 4dbea-0 4dbea-1" color="13,204,84" id="route_E4E15BDB-241A-495B-8044-C03031C9C671-KM-164.87032984724672-IN-314646B2-E853-4C8E-A6AF-46505664DBEA-KM-181.66400492600528-IN"/>
	<route edges="9c671-1 9c671-2 38b10-0 abe83-0 abe83-1" color="173,43,51" id="route_E4E15BDB-241A-495B-8044-C03031C9C671-KM-164.87032984724672-IN-06B3A265-3298-485F-8C04-660FBCFABE83-KM-340.8087986779541-IN"/>
	<route edges="9c671-1-re 9c671-0-re 24f4b-2-re 24f4b-1-re" color="28,196,40" id="route_E4E15BDB-241A-495B-8044-C03031C9C671-KM-25-GEGEN-8644EB71-4911-4C8E-B156-4B931E624F4B-KM-25-GEGEN"/>
	<route edges="abe83-1 abe83-2 bebe6-0-re 41acf-0 41acf-1 41acf-2" color="21,130,249" id="route_06B3A265-3298-485F-8C04-660FBCFABE83-KM-340.8087986779541-IN-812E000D-911E-4977-9D58-20D2F9841ACF-KM-1010.0-IN"/>
	<route edges="abe83-1 abe83-2 bebe6-0-re 45307-0 d6d0f-0 d6d0f-1 d6d0f-2" color="251,178,103" id="route_06B3A265-3298-485F-8C04-660FBCFABE83-KM-340.8087986779541-IN-6BCA0A66-F5B9-4F64-8F33-1E585B9D6D0F-KM-1010.0-IN"/>
	<route edges="abe83-1-re abe83-0-re 38b10-0-re 22407-0 6e8d0-0-re 0dcf6-2-re 0dcf6-1-re" color="58,249,225" id="route_06B3A265-3298-485F-8C04-660FBCFABE83-KM-25-GEGEN-D7C8169B-19F0-4AF8-B18F-B2B42690DCF6-KM-25-GEGEN"/>
	<route edges="abe83-1-re abe83-0-re 38b10-0-re 22407-0 6e8d0-0-re 49712-0-re 24f4b-2-re 24f4b-1-re" color="239,173,2" id="route_06B3A265-3298-485F-8C04-660FBCFABE83-KM-25-GEGEN-8644EB71-4911-4C8E-B156-4B931E624F4B-KM-25-GEGEN"/>
	<route edges="abe83-1-re abe83-0-re 38b10-0-re 9c671-2-re 9c671-1-re" color="110,128,204" id="route_06B3A265-3298-485F-8C04-660FBCFABE83-KM-25-GEGEN-E4E15BDB-241A-495B-8044-C03031C9C671-KM-25-GEGEN"/>
	<route edges="4dbea-1 4dbea-2 8e427-0-re fd63d-2-re fd63d-1-re" color="41,79,43" id="route_314646B2-E853-4C8E-A6AF-46505664DBEA-KM-181.66400492600528-IN-4B2C0F2A-76F3-44A5-82AB-208605FFD63D-KM-25-GEGEN"/>
	<route edges="4dbea-1 4dbea-2 8e427-0-re 21967-0 d5026-4-re d5026-3-re d5026-2-re" color="139,200,197" id="route_314646B2-E853-4C8E-A6AF-46505664DBEA-KM-181.66400492600528-IN-7DCC35F2-73E8-4023-AC30-0822906D5026-KM-990.0-GEGEN"/>
	<route edges="4dbea-1 4dbea-2 8e427-0-re 21967-0 b2f4e-0-re bebe6-0-re 41acf-0 41acf-1 41acf-2" color="14,57,70" id="route_314646B2-E853-4C8E-A6AF-46505664DBEA-KM-181.66400492600528-IN-812E000D-911E-4977-9D58-20D2F9841ACF-KM-1010.0-IN"/>
	<route edges="4dbea-1 4dbea-2 8e427-0-re 21967-0 b2f4e-0-re bebe6-0-re 45307-0 d6d0f-0 d6d0f-1 d6d0f-2" color="102,237,254" id="route_314646B2-E853-4C8E-A6AF-46505664DBEA-KM-181.66400492600528-IN-6BCA0A66-F5B9-4F64-8F33-1E585B9D6D0F-KM-1010.0-IN"/>
	<route edges="4dbea-1-re 4dbea-0-re 38b10-0-re 22407-0 6e8d0-0-re 0dcf6-2-re 0dcf6-1-re" color="75,165,23" id="route_314646B2-E853-4C8E-A6AF-46505664DBEA-KM-25-GEGEN-D7C8169B-19F0-4AF8-B18F-B2B42690DCF6-KM-25-GEGEN"/>
	<route edges="4dbea-1-re 4dbea-0-re 38b10-0-re 22407-0 6e8d0-0-re 49712-0-re 24f4b-2-re 24f4b-1-re" color="165,110,82" id="route_314646B2-E853-4C8E-A6AF-46505664DBEA-KM-25-GEGEN-8644EB71-4911-4C8E-B156-4B931E624F4B-KM-25-GEGEN"/>
	<route edges="4dbea-1-re 4dbea-0-re 38b10-0-re 9c671-2-re 9c671-1-re" color="78,43,233" id="route_314646B2-E853-4C8E-A6AF-46505664DBEA-KM-25-GEGEN-E4E15BDB-241A-495B-8044-C03031C9C671-KM-25-GEGEN"/>
	<route edges="e2ed8-1 e2ed8-2 1c363-2-re 1c363-1-re" color="235,228,252" id="route_997585D9-C21F-40A0-ADF9-3FAB4D2E2ED8-KM-86.42029216853058-IN-FE1DF8E2-5A04-46D1-AD78-390EC731C363-KM-25-GEGEN"/>
	<route edges="e2ed8-1 e2ed8-2 153b1-0-re f7740-0 f7740-1" color="131,56,74" id="route_997585D9-C21F-40A0-ADF9-3FAB4D2E2ED8-KM-86.42029216853058-IN-06793584-C927-408B-9F4B-B942048F7740-KM-1453.541904487744-IN"/>
	<route edges="e2ed8-1-re e2ed8-0-re d5026-0 d5026-1 d5026-2" color="216,44,180" id="route_997585D9-C21F-40A0-ADF9-3FAB4D2E2ED8-KM-25-GEGEN-7DCC35F2-73E8-4023-AC30-0822906D5026-KM-1010.0-IN"/>
	<route edges="e2ed8-1-re e2ed8-0-re 1e138-14-re 1e138-13-re 1e138-12-re" color="240,156,189" id="route_997585D9-C21F-40A0-ADF9-3FAB4D2E2ED8-KM-25-GEGEN-CB0352C3-F88C-44E8-9B9F-E23270D1E138-KM-5990.0-GEGEN"/>
	<route edges="d5026-2 d5026-3" color="18,157,39" id="route_7DCC35F2-73E8-4023-AC30-0822906D5026-KM-1010.0-IN-7DCC35F2-73E8-4023-AC30-0822906D5026-KM-2904.2543286491227-IN"/>
	<route edges="d5026-3 d5026-4 21967-0-re 8e427-0 4dbea-2-re 4dbea-1-re" color="237,27,9" id="route_7DCC35F2-73E8-4023-AC30-0822906D5026-KM-2904.2543286491227-IN-314646B2-E853-4C8E-A6AF-46505664DBEA-KM-25-GEGEN"/>