<connections>
<!-- Point ff1c2 136d99d0-db45-4612-959f-0647437ff1c2 -->
<connection from="31377-0" to="7ec78-0"/>
<connection from="31377-0" to="7ec78-0-re"/>
<connection from="31377-0-re" to="7ec78-0"/>
<connection from="31377-0-re" to="7ec78-0-re"/>
<connection from="ba8c6-0" to="7ec78-0"/>
<connection from="ba8c6-0" to="7ec78-0-re"/>
<connection from="ba8c6-0-re" to="7ec78-0"/>
<connection from="ba8c6-0-re" to="7ec78-0-re"/>
<connection from="7ec78-0" to="31377-0"/>
<connection from="7ec78-0" to="ba8c6-0"/>
<connection from="7ec78-0" to="31377-0-re"/>
<connection from="7ec78-0" to="ba8c6-0-re"/>
<connection from="7ec78-0-re" to="31377-0"/>
<connection from="7ec78-0-re" to="ba8c6-0"/>
<connection from="7ec78-0-re" to="31377-0-re"/>
<connection from="7ec78-0-re" to="ba8c6-0-re"/>
<!-- Point 34e5b 75083d23-d9d2-4f58-95be-fced74e34e5b -->
<connection from="2c5ad-0" to="ba8c6-2"/>
<connection from="2c5ad-0" to="ba8c6-2-re"/>
<connection from="2c5ad-0-re" to="ba8c6-2"/>
<connection from="2c5ad-0-re" to="ba8c6-2-re"/>
<connection from="100a7-0" to="ba8c6-2"/>
<connection from="100a7-0" to="ba8c6-2-re"/>
<connection from="100a7-0-re" to="ba8c6-2"/>
<connection from="100a7-0-re" to="ba8c6-2-re"/>
<connection from="ba8c6-2" to="2c5ad-0"/>
<connection from="ba8c6-2" to="100a7-0"/>
<connection from="ba8c6-2" to="2c5ad-0-re"/>
<connection from="ba8c6-2" to="100a7-0-re"/>
<connection from="ba8c6-2-re" to="2c5ad-0"/>
<connection from="ba8c6-2-re" to="100a7-0"/>
<connection from="ba8c6-2-re" to="2c5ad-0-re"/>
<connection from="ba8c6-2-re" to="100a7-0-re"/>
<!-- Point 746d7 aa8aec42-4ffd-4793-ba53-c3ea06c746d7 -->
<connection from="a7738-0" to="010d7-0"/>
<connection from="a7738-0" to="010d7-0-re"/>
<connection from="a7738-0-re" to="010d7-0"/>
<connection from="a7738-0-re" to="010d7-0-re"/>
<connection from="2c5ad-2" to="010d7-0"/>
<connection from="2c5ad-2" to="010d7-0-re"/>
<connection from="2c5ad-2-re" to="010d7-0"/>
<connection from="2c5ad-2-re" to="010d7-0-re"/>
<connection from="010d7-0" to="a7738-0"/>
<connection from="010d7-0" to="2c5ad-2"/>
<connection from="010d7-0" to="a7738-0-re"/>
<connection from="010d7-0" to="2c5ad-2-re"/>
<connection from="010d7-0-re" to="a7738-0"/>
<connection from="010d7-0-re" to="2c5ad-2"/>
<connection from="010d7-0-re" to="a7738-0-re"/>
<connection from="010d7-0-re" to="2c5ad-2-re"/>
<!-- Point 9890a e0fe1ce6-be72-4afe-ae47-45d8c9a9890a -->
<connection from="010d7-2" to="4d351-0"/>
<connection from="010d7-2" to="4d351-0-re"/>
<connection from="010d7-2-re" to="4d351-0"/>
<connection from="010d7-2-re" to="4d351-0-re"/>
<connection from="53d67-0" to="4d351-0"/>
<connection from="53d67-0" to="4d351-0-re"/>
<connection from="53d67-0-re" to="4d351-0"/>
<connection from="53d67-0-re" to="4d351-0-re"/>
<connection from="4d351-0" to="010d7-2"/>
<connection from="4d351-0" to="53d67-0"/>
<connection from="4d351-0" to="010d7-2-re"/>
<connection from="4d351-0" to="53d67-0-re"/>
<connection from="4d351-0-re" to="010d7-2"/>
<connection from="4d351-0-re" to="53d67-0"/>
<connection from="4d351-0-re" to="010d7-2-re"/>
<connection from="4d351-0-re" to="53d67-0-re"/>
<!-- Point 6b022 bdce976d-aff4-4f4d-b770-d3644c96b022 -->
<connection from="d8d2c-0" to="dedc5-0"/>
<connection from="d8d2c-0" to="dedc5-0-re"/>
<connection from="d8d2c-0-re" to="dedc5-0"/>
<connection from="d8d2c-0-re" to="dedc5-0-re"/>
<connection from="7f7bf-0" to="dedc5-0"/>
<connection from="7f7bf-0" to="dedc5-0-re"/>
<connection from="7f7bf-0-re" to="dedc5-0"/>
<connection from="7f7bf-0-re" to="dedc5-0-re"/>
<connection from="dedc5-0" to="d8d2c-0"/>
<connection from="dedc5-0" to="7f7bf-0"/>
<connection from="dedc5-0" to="d8d2c-0-re"/>
<connection from="dedc5-0" to="7f7bf-0-re"/>
<connection from="dedc5-0-re" to="d8d2c-0"/>
<connection from="dedc5-0-re" to="7f7bf-0"/>
<connection from="dedc5-0-re" to="d8d2c-0-re"/>
<connection from="dedc5-0-re" to="7f7bf-0-re"/>
<!-- Point 1ff4a 0ab9254d-b4a0-4195-8af4-e9f1b311ff4a -->
<connection from="85f43-0" to="76c35-0"/>
<connection from="85f43-0" to="76c35-0-re"/>
<connection from="85f43-0-re" to="76c35-0"/>
<connection from="85f43-0-re" to="76c35-0-re"/>
<connection from="7f7bf-2" to="76c35-0"/>
<connection from="7f7bf-2" to="76c35-0-re"/>
<connection from="7f7bf-2-re" to="76c35-0"/>
<connection from="7f7bf-2-re" to="76c35-0-re"/>
<connection from="76c35-0" to="85f43-0"/>
<connection from="76c35-0" to="7f7bf-2"/>
<connection from="76c35-0" to="85f43-0-re"/>
<connection from="76c35-0" to="7f7bf-2-re"/>
<connection from="76c35-0-re" to="85f43-0"/>
<connection from="76c35-0-re" to="7f7bf-2"/>
<connection from="76c35-0-re" to="85f43-0-re"/>
<connection from="76c35-0-re" to="7f7bf-2-re"/>
<!-- Point cc683 01ebf3eb-fe7f-4374-9568-fb47d3ccc683 -->
<connection from="4d42b-0" to="a972d-0"/>
<connection from="4d42b-0" to="a972d-0-re"/>
<connection from="4d42b-0-re" to="a972d-0"/>
<connection from="4d42b-0-re" to="a972d-0-re"/>
<connection from="42dd6-0" to="a972d-0"/>
<connection from="42dd6-0" to="a972d-0-re"/>
<connection from="42dd6-0-re" to="a972d-0"/>
<connection from="42dd6-0-re" to="a972d-0-re"/>
<connection from="a972d-0" to="4d42b-0"/>
<connection from="a972d-0" to="42dd6-0"/>
<connection from="a972d-0" to="4d42b-0-re"/>
<connection from="a972d-0" to="42dd6-0-re"/>
<connection from="a972d-0-re" to="4d42b-0"/>
<connection from="a972d-0-re" to="42dd6-0"/>
<connection from="a972d-0-re" to="4d42b-0-re"/>
<connection from="a972d-0-re" to="42dd6-0-re"/>
<!-- Point 91ef3 3994b1f9-a870-473b-a8b6-fddf0da91ef3 -->
<connection from="cc733-0" to="d9ad5-0"/>
<connection from="cc733-0" to="d9ad5-0-re"/>
<connection from="cc733-0-re" to="d9ad5-0"/>
<connection from="cc733-0-re" to="d9ad5-0-re"/>
<connection from="ddbfc-0" to="d9ad5-0"/>
<connection from="ddbfc-0" to="d9ad5-0-re"/>
<connection from="ddbfc-0-re" to="d9ad5-0"/>
<connection from="ddbfc-0-re" to="d9ad5-0-re"/>
<connection from="d9ad5-0" to="cc733-0"/>
<connection from="d9ad5-0" to="ddbfc-0"/>
<connection from="d9ad5-0" to="cc733-0-re"/>
<connection from="d9ad5-0" to="ddbfc-0-re"/>
<connection from="d9ad5-0-re" to="cc733-0"/>
<connection from="d9ad5-0-re" to="ddbfc-0"/>
<connection from="d9ad5-0-re" to="cc733-0-re"/>
<connection from="d9ad5-0-re" to="ddbfc-0-re"/>
<!-- Point c5c14 12085bf9-7f67-4338-a83f-fb625d9c5c14 -->
<connection from="2132b-0" to="ddbfc-0"/>
<connection from="2132b-0" to="ddbfc-0-re"/>
<connection from="2132b-0-re" to="ddbfc-0"/>
<connection from="2132b-0-re" to="ddbfc-0-re"/>
<connection from="d031a-0" to="ddbfc-0"/>
<connection from="d031a-0" to="ddbfc-0-re"/>
<connection from="d031a-0-re" to="ddbfc-0"/>
<connection from="d031a-0-re" to="ddbfc-0-re"/>
<connection from="ddbfc-0" to="2132b-0"/>
<connection from="ddbfc-0" to="d031a-0"/>
<connection from="ddbfc-0" to="2132b-0-re"/>
<connection from="ddbfc-0" to="d031a-0-re"/>
<connection from="ddbfc-0-re" to="2132b-0"/>
<connection from="ddbfc-0-re" to="d031a-0"/>
<connection from="ddbfc-0-re" to="2132b-0-re"/>
<connection from="ddbfc-0-re" to="d031a-0-re"/>
<!-- Point b2cdd 4df069ae-e104-4068-9e4f-156b690b2cdd -->
<connection from="e6b6e-0" to="48dbb-0"/>
<connection from="e6b6e-0" to="48dbb-0-re"/>
<connection from="e6b6e-0-re" to="48dbb-0"/>
<connection from="e6b6e-0-re" to="48dbb-0-re"/>
<connection from="d031a-2" to="48dbb-0"/>
<connection from="d031a-2" to="48dbb-0-re"/>
<connection from="d031a-2-re" to="48dbb-0"/>
<connection from="d031a-2-re" to="48dbb-0-re"/>
<connection from="48dbb-0" to="e6b6e-0"/>
<connection from="48dbb-0" to="d031a-2"/>
<connection from="48dbb-0" to="e6b6e-0-re"/>
<connection from="48dbb-0" to="d031a-2-re"/>
<connection from="48dbb-0-re" to="e6b6e-0"/>
<connection from="48dbb-0-re" to="d031a-2"/>
<connection from="48dbb-0-re" to="e6b6e-0-re"/>
<connection from="48dbb-0-re" to="d031a-2-re"/>
<!-- Point bb55c 8166a6c3-bb7d-4d73-b4be-7b1d0c5bb55c -->
<connection from="48dbb-0" to="233a9-0"/>
<connection from="48dbb-0" to="233a9-0-re"/>
<connection from="48dbb-0-re" to="233a9-0"/>
<connection from="48dbb-0-re" to="233a9-0-re"/>
<connection from="4e574-0" to="233a9-0"/>
<connection from="4e574-0" to="233a9-0-re"/>
<connection from="4e574-0-re" to="233a9-0"/>
<connection from="4e574-0-re" to="233a9-0-re"/>
<connection from="233a9-0" to="48dbb-0"/>
<connection from="233a9-0" to="4e574-0"/>
<connection from="233a9-0" to="48dbb-0-re"/>
<connection from="233a9-0" to="4e574-0-re"/>
<connection from="233a9-0-re" to="48dbb-0"/>
<connection from="233a9-0-re" to="4e574-0"/>
<connection from="233a9-0-re" to="48dbb-0-re"/>
<connection from="233a9-0-re" to="4e574-0-re"/>
<!-- Point 8c9de c1cb652d-f61d-4cfd-ba76-df3cb918c9de -->
<connection from="233a9-0" to="ad703-0"/>
<connection from="233a9-0" to="ad703-0-re"/>
<connection from="233a9-0-re" to="ad703-0"/>
<connection from="233a9-0-re" to="ad703-0-re"/>
<connection from="60023-0" to="ad703-0"/>
<connection from="60023-0" to="ad703-0-re"/>
<connection from="60023-0-re" to="ad703-0"/>
<connection from="60023-0-re" to="ad703-0-re"/>
<connection from="ad703-0" to="233a9-0"/>
<connection from="ad703-0" to="60023-0"/>
<connection from="ad703-0" to="233a9-0-re"/>
<connection from="ad703-0" to="60023-0-re"/>
<connection from="ad703-0-re" to="233a9-0"/>
<connection from="ad703-0-re" to="60023-0"/>
<connection from="ad703-0-re" to="233a9-0-re"/>
<connection from="ad703-0-re" to="60023-0-re"/>
<!-- Point a0067 7a8310c5-0652-46d2-b5cd-b6cd0f2a0067 -->
<connection from="745fb-0" to="ad703-2"/>
<connection from="745fb-0" to="ad703-2-re"/>
<connection from="745fb-0-re" to="ad703-2"/>
<connection from="745fb-0-re" to="ad703-2-re"/>
<connection from="6fa32-0" to="ad703-2"/>
<connection from="6fa32-0" to="ad703-2-re"/>
<connection from="6fa32-0-re" to="ad703-2"/>
<connection from="6fa32-0-re" to="ad703-2-re"/>
<connection from="ad703-2" to="745fb-0"/>
<connection from="ad703-2" to="6fa32-0"/>
<connection from="ad703-2" to="745fb-0-re"/>
<connection from="ad703-2" to="6fa32-0-re"/>
<connection from="ad703-2-re" to="745fb-0"/>
<connection from="ad703-2-re" to="6fa32-0"/>
<connection from="ad703-2-re" to="745fb-0-re"/>
<connection from="ad703-2-re" to="6fa32-0-re"/>
<!-- Point 565cb b4449df0-ac1b-4c7b-975a-158d12a565cb -->
<connection from="843ba-0" to="8beee-0"/>
<connection from="843ba-0" to="8beee-0-re"/>
<connection from="843ba-0-re" to="8beee-0"/>
<connection from="843ba-0-re" to="8beee-0-re"/>
<connection from="6fa32-2" to="8beee-0"/>
<connection from="6fa32-2" to="8beee-0-re"/>
<connection from="6fa32-2-re" to="8beee-0"/>
<connection from="6fa32-2-re" to="8beee-0-re"/>
<connection from="8beee-0" to="843ba-0"/>
<connection from="8beee-0" to="6fa32-2"/>
<connection from="8beee-0" to="843ba-0-re"/>
<connection from="8beee-0" to="6fa32-2-re"/>
<connection from="8beee-0-re" to="843ba-0"/>
<connection from="8beee-0-re" to="6fa32-2"/>
<connection from="8beee-0-re" to="843ba-0-re"/>
<connection from="8beee-0-re" to="6fa32-2-re"/>

<!-- Point 7aac5 d89ff07e-0af7-4000-91bf-54b3d287aac5 -->
<connection from="6cb5a-0" to="9177f-0"/>
<connection from="6cb5a-0" to="9177f-0-re"/>
<connection from="6cb5a-0-re" to="9177f-0"/>
<connection from="6cb5a-0-re" to="9177f-0-re"/>
<connection from="cc8ca-0" to="9177f-0"/>
<connection from="cc8ca-0" to="9177f-0-re"/>
<connection from="cc8ca-0-re" to="9177f-0"/>
<connection from="cc8ca-0-re" to="9177f-0-re"/>
<connection from="9177f-0" to="6cb5a-0"/>
<connection from="9177f-0" to="cc8ca-0"/>
<connection from="9177f-0" to="6cb5a-0-re"/>
<connection from="9177f-0" to="cc8ca-0-re"/>
<connection from="9177f-0-re" to="6cb5a-0"/>
<connection from="9177f-0-re" to="cc8ca-0"/>
<connection from="9177f-0-re" to="6cb5a-0-re"/>
<connection from="9177f-0-re" to="cc8ca-0-re"/>
<!-- Point f806d be861125-2220-431e-9c74-8b974c4f806d -->
<connection from="6cb5a-2" to="5cbd6-0"/>
<connection from="6cb5a-2" to="5cbd6-0-re"/>
<connection from="6cb5a-2-re" to="5cbd6-0"/>
<connection from="6cb5a-2-re" to="5cbd6-0-re"/>
<connection from="e0848-0" to="5cbd6-0"/>
<connection from="e0848-0" to="5cbd6-0-re"/>
<connection from="e0848-0-re" to="5cbd6-0"/>
<connection from="e0848-0-re" to="5cbd6-0-re"/>
<connection from="5cbd6-0" to="6cb5a-2"/>
<connection from="5cbd6-0" to="e0848-0"/>
<connection from="5cbd6-0" to="6cb5a-2-re"/>
<connection from="5cbd6-0" to="e0848-0-re"/>
<connection from="5cbd6-0-re" to="6cb5a-2"/>
<connection from="5cbd6-0-re" to="e0848-0"/>
<connection from="5cbd6-0-re" to="6cb5a-2-re"/>
<connection from="5cbd6-0-re" to="e0848-0-re"/>
<!-- Point 2da95 68ebf48c-9e99-4d1d-a43b-d45de0c2da95 -->
<connection from="a4491-0" to="5cbd6-0"/>
<connection from="a4491-0" to="5cbd6-0-re"/>
<connection from="a4491-0-re" to="5cbd6-0"/>
<connection from="a4491-0-re" to="5cbd6-0-re"/>
<connection from="faac1-0" to="5cbd6-0"/>
<connection from="faac1-0" to="5cbd6-0-re"/>
<connection from="faac1-0-re" to="5cbd6-0"/>
<connection from="faac1-0-re" to="5cbd6-0-re"/>
<connection from="5cbd6-0" to="a4491-0"/>
<connection from="5cbd6-0" to="faac1-0"/>
<connection from="5cbd6-0" to="a4491-0-re"/>
<connection from="5cbd6-0" to="faac1-0-re"/>
<connection from="5cbd6-0-re" to="a4491-0"/>
<connection from="5cbd6-0-re" to="faac1-0"/>
<connection from="5cbd6-0-re" to="a4491-0-re"/>
<connection from="5cbd6-0-re" to="faac1-0-re"/>
<!-- Point 76b03 a474289e-76e8-4a02-a3ba-950d3f876b03 -->
<connection from="5ade1-0" to="0f11f-0"/>
<connection from="5ade1-0" to="0f11f-0-re"/>
<connection from="5ade1-0-re" to="0f11f-0"/>
<connection from="5ade1-0-re" to="0f11f-0-re"/>
<connection from="7a94b-0" to="0f11f-0"/>
<connection from="7a94b-0" to="0f11f-0-re"/>
<connection from="7a94b-0-re" to="0f11f-0"/>
<connection from="7a94b-0-re" to="0f11f-0-re"/>
<connection from="0f11f-0" to="5ade1-0"/>
<connection from="0f11f-0" to="7a94b-0"/>
<connection from="0f11f-0" to="5ade1-0-re"/>
<connection from="0f11f-0" to="7a94b-0-re"/>
<connection from="0f11f-0-re" to="5ade1-0"/>
<connection from="0f11f-0-re" to="7a94b-0"/>
<connection from="0f11f-0-re" to="5ade1-0-re"/>
<connection from="0f11f-0-re" to="7a94b-0-re"/>
<!-- Point c9246 107822e2-49f4-444b-a261-2265793c9246 -->
<connection from="37e5f-0" to="76c35-2"/>
<connection from="37e5f-0" to="76c35-2-re"/>
<connection from="37e5f-0-re" to="76c35-2"/>
<connection from="37e5f-0-re" to="76c35-2-re"/>
<connection from="734fd-0" to="76c35-2"/>
<connection from="734fd-0" to="76c35-2-re"/>
<connection from="734fd-0-re" to="76c35-2"/>
<connection from="734fd-0-re" to="76c35-2-re"/>
<connection from="76c35-2" to="37e5f-0"/>
<connection from="76c35-2" to="734fd-0"/>
<connection from="76c35-2" to="37e5f-0-re"/>
<connection from="76c35-2" to="734fd-0-re"/>
<connection from="76c35-2-re" to="37e5f-0"/>
<connection from="76c35-2-re" to="734fd-0"/>
<connection from="76c35-2-re" to="37e5f-0-re"/>
<connection from="76c35-2-re" to="734fd-0-re"/>
<!-- Point aa459 acce1c81-75fe-4a06-aafc-87f82b6aa459 -->
<connection from="ff2e6-0" to="c25f2-0"/>
<connection from="ff2e6-0" to="c25f2-0-re"/>
<connection from="ff2e6-0-re" to="c25f2-0"/>
<connection from="ff2e6-0-re" to="c25f2-0-re"/>
<connection from="37e5f-2" to="c25f2-0"/>
<connection from="37e5f-2" to="c25f2-0-re"/>
<connection from="37e5f-2-re" to="c25f2-0"/>
<connection from="37e5f-2-re" to="c25f2-0-re"/>
<connection from="c25f2-0" to="ff2e6-0"/>
<connection from="c25f2-0" to="37e5f-2"/>
<connection from="c25f2-0" to="ff2e6-0-re"/>
<connection from="c25f2-0" to="37e5f-2-re"/>
<connection from="c25f2-0-re" to="ff2e6-0"/>
<connection from="c25f2-0-re" to="37e5f-2"/>
<connection from="c25f2-0-re" to="ff2e6-0-re"/>
<connection from="c25f2-0-re" to="37e5f-2-re"/>
<!-- Point 579b1 236fa49d-a6b2-4114-9f93-b1ef62e579b1 -->
<connection from="41e4a-0" to="c25f2-0"/>
<connection from="41e4a-0" to="c25f2-0-re"/>
<connection from="41e4a-0-re" to="c25f2-0"/>
<connection from="41e4a-0-re" to="c25f2-0-re"/>
<connection from="2db34-0" to="c25f2-0"/>
<connection from="2db34-0" to="c25f2-0-re"/>
<connection from="2db34-0-re" to="c25f2-0"/>
<connection from="2db34-0-re" to="c25f2-0-re"/>
<connection from="c25f2-0" to="41e4a-0"/>
<connection from="c25f2-0" to="2db34-0"/>
<connection from="c25f2-0" to="41e4a-0-re"/>
<connection from="c25f2-0" to="2db34-0-re"/>
<connection from="c25f2-0-re" to="41e4a-0"/>
<connection from="c25f2-0-re" to="2db34-0"/>
<connection from="c25f2-0-re" to="41e4a-0-re"/>
<connection from="c25f2-0-re" to="2db34-0-re"/>
<!-- Point 6cf44 f7a1d09d-75e2-4b6a-90b7-709c2486cf44 -->
<connection from="2db34-2" to="a972d-0"/>
<connection from="2db34-2" to="a972d-0-re"/>
<connection from="2db34-2-re" to="a972d-0"/>
<connection from="2db34-2-re" to="a972d-0-re"/>
<connection from="f22c2-0" to="a972d-0"/>
<connection from="f22c2-0" to="a972d-0-re"/>
<connection from="f22c2-0-re" to="a972d-0"/>
<connection from="f22c2-0-re" to="a972d-0-re"/>
<connection from="a972d-0" to="2db34-2"/>
<connection from="a972d-0" to="f22c2-0"/>
<connection from="a972d-0" to="2db34-2-re"/>
<connection from="a972d-0" to="f22c2-0-re"/>
<connection from="a972d-0-re" to="2db34-2"/>
<connection from="a972d-0-re" to="f22c2-0"/>
<connection from="a972d-0-re" to="2db34-2-re"/>
<connection from="a972d-0-re" to="f22c2-0-re"/>
<!-- Point a6ba1 c52bed3c-04ea-4a62-8654-4e4c45aa6ba1 -->
<connection from="461ea-0" to="393fe-0"/>
<connection from="461ea-0" to="393fe-0-re"/>
<connection from="461ea-0-re" to="393fe-0"/>
<connection from="461ea-0-re" to="393fe-0-re"/>
<connection from="0f11f-14" to="393fe-0"/>
<connection from="0f11f-14" to="393fe-0-re"/>
<connection from="0f11f-14-re" to="393fe-0"/>
<connection from="0f11f-14-re" to="393fe-0-re"/>
<connection from="393fe-0" to="461ea-0"/>
<connection from="393fe-0" to="0f11f-14"/>
<connection from="393fe-0" to="461ea-0-re"/>
<connection from="393fe-0" to="0f11f-14-re"/>
<connection from="393fe-0-re" to="461ea-0"/>
<connection from="393fe-0-re" to="0f11f-14"/>
<connection from="393fe-0-re" to="461ea-0-re"/>
<connection from="393fe-0-re" to="0f11f-14-re"/>

<!-- Point 16ccf 5b7661ec-00d0-4753-af1a-dfcf4d716ccf -->
<connection from="a1ab9-3" to="f44c5-0"/>
<connection from="a1ab9-3" to="f44c5-0-re"/>
<connection from="a1ab9-3-re" to="f44c5-0"/>
<connection from="a1ab9-3-re" to="f44c5-0-re"/>
<connection from="c202b-0" to="f44c5-0"/>
<connection from="c202b-0" to="f44c5-0-re"/>
<connection from="c202b-0-re" to="f44c5-0"/>
<connection from="c202b-0-re" to="f44c5-0-re"/>
<connection from="f44c5-0" to="a1ab9-3"/>
<connection from="f44c5-0" to="c202b-0"/>
<connection from="f44c5-0" to="a1ab9-3-re"/>
<connection from="f44c5-0" to="c202b-0-re"/>
<connection from="f44c5-0-re" to="a1ab9-3"/>
<connection from="f44c5-0-re" to="c202b-0"/>
<connection from="f44c5-0-re" to="a1ab9-3-re"/>
<connection from="f44c5-0-re" to="c202b-0-re"/>

<!-- Point e3a88 35da29b6-deac-4576-b20e-21cdb8ae3a88 -->
<connection from="f44c5-2" to="1a2ad-0"/>
<connection from="f44c5-2" to="1a2ad-0-re"/>
<connection from="f44c5-2-re" to="1a2ad-0"/>
<connection from="f44c5-2-re" to="1a2ad-0-re"/>
<connection from="4a45f-0" to="1a2ad-0"/>
<connection from="4a45f-0" to="1a2ad-0-re"/>
<connection from="4a45f-0-re" to="1a2ad-0"/>
<connection from="4a45f-0-re" to="1a2ad-0-re"/>
<connection from="1a2ad-0" to="f44c5-2"/>
<connection from="1a2ad-0" to="4a45f-0"/>
<connection from="1a2ad-0" to="f44c5-2-re"/>
<connection from="1a2ad-0" to="4a45f-0-re"/>
<connection from="1a2ad-0-re" to="f44c5-2"/>
<connection from="1a2ad-0-re" to="4a45f-0"/>
<connection from="1a2ad-0-re" to="f44c5-2-re"/>
<connection from="1a2ad-0-re" to="4a45f-0-re"/>
<!-- Point 8ac8f 07f89141-2d50-4710-a528-6b9fd818ac8f -->
<connection from="269e3-0" to="2f181-0"/>
<connection from="269e3-0" to="2f181-0-re"/>
<connection from="269e3-0-re" to="2f181-0"/>
<connection from="269e3-0-re" to="2f181-0-re"/>
<connection from="1a2ad-2" to="2f181-0"/>
<connection from="1a2ad-2" to="2f181-0-re"/>
<connection from="1a2ad-2-re" to="2f181-0"/>
<connection from="1a2ad-2-re" to="2f181-0-re"/>
<connection from="2f181-0" to="269e3-0"/>
<connection from="2f181-0" to="1a2ad-2"/>
<connection from="2f181-0" to="269e3-0-re"/>
<connection from="2f181-0" to="1a2ad-2-re"/>
<connection from="2f181-0-re" to="269e3-0"/>
<connection from="2f181-0-re" to="1a2ad-2"/>
<connection from="2f181-0-re" to="269e3-0-re"/>
<connection from="2f181-0-re" to="1a2ad-2-re"/>
<!-- Point 0c1e7 f78d296c-d0fb-4a75-80b9-96633c90c1e7 -->
<connection from="ccbbc-0" to="2f181-0"/>
<connection from="ccbbc-0" to="2f181-0-re"/>
<connection from="ccbbc-0-re" to="2f181-0"/>
<connection from="ccbbc-0-re" to="2f181-0-re"/>
<connection from="613fb-0" to="2f181-0"/>
<connection from="613fb-0" to="2f181-0-re"/>
<connection from="613fb-0-re" to="2f181-0"/>
<connection from="613fb-0-re" to="2f181-0-re"/>
<connection from="2f181-0" to="ccbbc-0"/>
<connection from="2f181-0" to="613fb-0"/>
<connection from="2f181-0" to="ccbbc-0-re"/>
<connection from="2f181-0" to="613fb-0-re"/>
<connection from="2f181-0-re" to="ccbbc-0"/>
<connection from="2f181-0-re" to="613fb-0"/>
<connection from="2f181-0-re" to="ccbbc-0-re"/>
<connection from="2f181-0-re" to="613fb-0-re"/>
<!-- Point a0f12 9cfe7cdf-fae3-464c-b4bf-dcedca5a0f12 -->
<connection from="5f5ee-0" to="a4944-0"/>
<connection from="5f5ee-0" to="a4944-0-re"/>
<connection from="5f5ee-0-re" to="a4944-0"/>
<connection from="5f5ee-0-re" to="a4944-0-re"/>
<connection from="ccbbc-2" to="a4944-0"/>
<connection from="ccbbc-2" to="a4944-0-re"/>
<connection from="ccbbc-2-re" to="a4944-0"/>
<connection from="ccbbc-2-re" to="a4944-0-re"/>
<connection from="a4944-0" to="5f5ee-0"/>
<connection from="a4944-0" to="ccbbc-2"/>
<connection from="a4944-0" to="5f5ee-0-re"/>
<connection from="a4944-0" to="ccbbc-2-re"/>
<connection from="a4944-0-re" to="5f5ee-0"/>
<connection from="a4944-0-re" to="ccbbc-2"/>
<connection from="a4944-0-re" to="5f5ee-0-re"/>
<connection from="a4944-0-re" to="ccbbc-2-re"/>
<!-- Point eb6fe 379f408b-a3cd-4713-b92c-512be4aeb6fe -->
<connection from="5c783-0" to="a4944-2"/>
<connection from="5c783-0" to="a4944-2-re"/>
<connection from="5c783-0-re" to="a4944-2"/>
<connection from="5c783-0-re" to="a4944-2-re"/>
<connection from="0f370-0" to="a4944-2"/>
<connection from="0f370-0" to="a4944-2-re"/>
<connection from="0f370-0-re" to="a4944-2"/>
<connection from="0f370-0-re" to="a4944-2-re"/>
<connection from="a4944-2" to="5c783-0"/>
<connection from="a4944-2" to="0f370-0"/>
<connection from="a4944-2" to="5c783-0-re"/>
<connection from="a4944-2" to="0f370-0-re"/>
<connection from="a4944-2-re" to="5c783-0"/>
<connection from="a4944-2-re" to="0f370-0"/>
<connection from="a4944-2-re" to="5c783-0-re"/>
<connection from="a4944-2-re" to="0f370-0-re"/>
<!-- Point 34663 2ceaca1d-6135-4a9f-b405-0178ab534663 -->
<connection from="8f60f-0" to="72b4f-0"/>
<connection from="8f60f-0" to="72b4f-0-re"/>
<connection from="8f60f-0-re" to="72b4f-0"/>
<connection from="8f60f-0-re" to="72b4f-0-re"/>
<connection from="5c783-2" to="72b4f-0"/>
<connection from="5c783-2" to="72b4f-0-re"/>
<connection from="5c783-2-re" to="72b4f-0"/>
<connection from="5c783-2-re" to="72b4f-0-re"/>
<connection from="72b4f-0" to="8f60f-0"/>
<connection from="72b4f-0" to="5c783-2"/>
<connection from="72b4f-0" to="8f60f-0-re"/>
<connection from="72b4f-0" to="5c783-2-re"/>
<connection from="72b4f-0-re" to="8f60f-0"/>
<connection from="72b4f-0-re" to="5c783-2"/>
<connection from="72b4f-0-re" to="8f60f-0-re"/>
<connection from="72b4f-0-re" to="5c783-2-re"/>
<!-- Point 9b06c c9f8b3ac-de2e-4497-94fa-9c32b2e9b06c -->
<connection from="72b4f-2" to="ffa60-0"/>
<connection from="72b4f-2" to="ffa60-0-re"/>
<connection from="72b4f-2-re" to="ffa60-0"/>
<connection from="72b4f-2-re" to="ffa60-0-re"/>
<connection from="d38bd-0" to="ffa60-0"/>
<connection from="d38bd-0" to="ffa60-0-re"/>
<connection from="d38bd-0-re" to="ffa60-0"/>
<connection from="d38bd-0-re" to="ffa60-0-re"/>
<connection from="ffa60-0" to="72b4f-2"/>
<connection from="ffa60-0" to="d38bd-0"/>
<connection from="ffa60-0" to="72b4f-2-re"/>
<connection from="ffa60-0" to="d38bd-0-re"/>
<connection from="ffa60-0-re" to="72b4f-2"/>
<connection from="ffa60-0-re" to="d38bd-0"/>
<connection from="ffa60-0-re" to="72b4f-2-re"/>
<connection from="ffa60-0-re" to="d38bd-0-re"/>
<!-- Point ca76e 32d29c62-a7d0-45b9-997d-b7f56c7ca76e -->
<connection from="a2b82-0" to="da25e-0"/>
<connection from="a2b82-0" to="da25e-0-re"/>
<connection from="a2b82-0-re" to="da25e-0"/>
<connection from="a2b82-0-re" to="da25e-0-re"/>
<connection from="7c93e-0" to="da25e-0"/>
<connection from="7c93e-0" to="da25e-0-re"/>
<connection from="7c93e-0-re" to="da25e-0"/>
<connection from="7c93e-0-re" to="da25e-0-re"/>
<connection from="da25e-0" to="a2b82-0"/>
<connection from="da25e-0" to="7c93e-0"/>
<connection from="da25e-0" to="a2b82-0-re"/>
<connection from="da25e-0" to="7c93e-0-re"/>
<connection from="da25e-0-re" to="a2b82-0"/>
<connection from="da25e-0-re" to="7c93e-0"/>
<connection from="da25e-0-re" to="a2b82-0-re"/>
<connection from="da25e-0-re" to="7c93e-0-re"/>
<!-- Point 54f25 17bc780d-86b2-41f2-8374-b6833b954f25 -->
<connection from="a2b82-2" to="7dfe5-0"/>
<connection from="a2b82-2" to="7dfe5-0-re"/>
<connection from="a2b82-2-re" to="7dfe5-0"/>
<connection from="a2b82-2-re" to="7dfe5-0-re"/>
<connection from="b1de8-0" to="7dfe5-0"/>
<connection from="b1de8-0" to="7dfe5-0-re"/>
<connection from="b1de8-0-re" to="7dfe5-0"/>
<connection from="b1de8-0-re" to="7dfe5-0-re"/>
<connection from="7dfe5-0" to="a2b82-2"/>
<connection from="7dfe5-0" to="b1de8-0"/>
<connection from="7dfe5-0" to="a2b82-2-re"/>
<connection from="7dfe5-0" to="b1de8-0-re"/>
<connection from="7dfe5-0-re" to="a2b82-2"/>
<connection from="7dfe5-0-re" to="b1de8-0"/>
<connection from="7dfe5-0-re" to="a2b82-2-re"/>
<connection from="7dfe5-0-re" to="b1de8-0-re"/>
<!-- Point 4d3db fcd91f10-9d45-4c54-a382-b79a3c74d3db -->
<connection from="41e4a-2" to="7dfe5-0"/>
<connection from="41e4a-2" to="7dfe5-0-re"/>
<connection from="41e4a-2-re" to="7dfe5-0"/>
<connection from="41e4a-2-re" to="7dfe5-0-re"/>
<connection from="e77d6-0" to="7dfe5-0"/>
<connection from="e77d6-0" to="7dfe5-0-re"/>
<connection from="e77d6-0-re" to="7dfe5-0"/>
<connection from="e77d6-0-re" to="7dfe5-0-re"/>
<connection from="7dfe5-0" to="41e4a-2"/>
<connection from="7dfe5-0" to="e77d6-0"/>
<connection from="7dfe5-0" to="41e4a-2-re"/>
<connection from="7dfe5-0" to="e77d6-0-re"/>
<connection from="7dfe5-0-re" to="41e4a-2"/>
<connection from="7dfe5-0-re" to="e77d6-0"/>
<connection from="7dfe5-0-re" to="41e4a-2-re"/>
<connection from="7dfe5-0-re" to="e77d6-0-re"/>
<!-- Point 789f3 f188b1af-8fb8-4a71-8d26-52f533f789f3 -->
<connection from="5d3c9-0" to="e77d6-0"/>
<connection from="5d3c9-0" to="e77d6-0-re"/>
<connection from="5d3c9-0-re" to="e77d6-0"/>
<connection from="5d3c9-0-re" to="e77d6-0-re"/>
<connection from="12395-0" to="e77d6-0"/>
<connection from="12395-0" to="e77d6-0-re"/>
<connection from="12395-0-re" to="e77d6-0"/>
<connection from="12395-0-re" to="e77d6-0-re"/>
<connection from="e77d6-0" to="5d3c9-0"/>
<connection from="e77d6-0" to="12395-0"/>
<connection from="e77d6-0" to="5d3c9-0-re"/>
<connection from="e77d6-0" to="12395-0-re"/>
<connection from="e77d6-0-re" to="5d3c9-0"/>
<connection from="e77d6-0-re" to="12395-0"/>
<connection from="e77d6-0-re" to="5d3c9-0-re"/>
<connection from="e77d6-0-re" to="12395-0-re"/>
<!-- Point 74b51 1d7fdccb-8e99-4f90-a56e-cbb46a374b51 -->
<connection from="5f5ee-2" to="c97b5-0"/>
<connection from="5f5ee-2" to="c97b5-0-re"/>
<connection from="5f5ee-2-re" to="c97b5-0"/>
<connection from="5f5ee-2-re" to="c97b5-0-re"/>
<connection from="0dcca-0" to="c97b5-0"/>
<connection from="0dcca-0" to="c97b5-0-re"/>
<connection from="0dcca-0-re" to="c97b5-0"/>
<connection from="0dcca-0-re" to="c97b5-0-re"/>
<connection from="c97b5-0" to="5f5ee-2"/>
<connection from="c97b5-0" to="0dcca-0"/>
<connection from="c97b5-0" to="5f5ee-2-re"/>
<connection from="c97b5-0" to="0dcca-0-re"/>
<connection from="c97b5-0-re" to="5f5ee-2"/>
<connection from="c97b5-0-re" to="0dcca-0"/>
<connection from="c97b5-0-re" to="5f5ee-2-re"/>
<connection from="c97b5-0-re" to="0dcca-0-re"/>
<!-- Point 33865 c7db11cd-3503-4ffe-85e5-6afd4dd33865 -->
<connection from="39271-0" to="c97b5-0"/>
<connection from="39271-0" to="c97b5-0-re"/>
<connection from="39271-0-re" to="c97b5-0"/>
<connection from="39271-0-re" to="c97b5-0-re"/>
<connection from="613fb-2" to="c97b5-0"/>
<connection from="613fb-2" to="c97b5-0-re"/>
<connection from="613fb-2-re" to="c97b5-0"/>
<connection from="613fb-2-re" to="c97b5-0-re"/>
<connection from="c97b5-0" to="39271-0"/>
<connection from="c97b5-0" to="613fb-2"/>
<connection from="c97b5-0" to="39271-0-re"/>
<connection from="c97b5-0" to="613fb-2-re"/>
<connection from="c97b5-0-re" to="39271-0"/>
<connection from="c97b5-0-re" to="613fb-2"/>
<connection from="c97b5-0-re" to="39271-0-re"/>
<connection from="c97b5-0-re" to="613fb-2-re"/>
<!-- Point c6127 fcbfb77a-89bd-41f2-ab29-073a7f2c6127 -->
<connection from="ae4a2-0" to="2c09e-0"/>
<connection from="ae4a2-0" to="2c09e-0-re"/>
<connection from="ae4a2-0-re" to="2c09e-0"/>
<connection from="ae4a2-0-re" to="2c09e-0-re"/>
<connection from="d203f-0" to="2c09e-0"/>
<connection from="d203f-0" to="2c09e-0-re"/>
<connection from="d203f-0-re" to="2c09e-0"/>
<connection from="d203f-0-re" to="2c09e-0-re"/>
<connection from="2c09e-0" to="ae4a2-0"/>
<connection from="2c09e-0" to="d203f-0"/>
<connection from="2c09e-0" to="ae4a2-0-re"/>
<connection from="2c09e-0" to="d203f-0-re"/>
<connection from="2c09e-0-re" to="ae4a2-0"/>
<connection from="2c09e-0-re" to="d203f-0"/>
<connection from="2c09e-0-re" to="ae4a2-0-re"/>
<connection from="2c09e-0-re" to="d203f-0-re"/>
<!-- Point 31f73 392707c8-f110-4519-89e5-8a57a1831f73 -->
<connection from="ae4a2-2" to="d1527-0"/>
<connection from="ae4a2-2" to="d1527-0-re"/>
<connection from="ae4a2-2-re" to="d1527-0"/>
<connection from="ae4a2-2-re" to="d1527-0-re"/>
<connection from="eb977-0" to="d1527-0"/>
<connection from="eb977-0" to="d1527-0-re"/>
<connection from="eb977-0-re" to="d1527-0"/>