<?xml version="1.0" encoding="UTF-8"?>
<routes xmlns:xsi="http://www.w3.org/2001/XMLSchema-instance" xsi:noNamespaceSchemaLocation="http://sumo.dlr.de/xsd/routes_file.xsd">
	<route edges="b99be-1 b99be-2 b99be-3" color="33,229,1" id="route_AD7C18B1-E00F-4A52-A502-2F69477B99BE-KM-45-IN-AD7C18B1-E00F-4A52-A502-2F69477B99BE-KM-321.5762856547864-IN"/>
	<route edges="b99be-3 b99be-4 097c2-4-re 097c2-3-re" color="227,35,225" id="route_AD7C18B1-E00F-4A52-A502-2F69477B99BE-KM-321.5762856547864-IN-A8D9862B-F651-4EF1-936B-7FADAD2097C2-KM-116.72691529462978-GEGEN"/>
	<route edges="b99be-3 b99be-4 6147e-4-re 6147e-3-re" color="128,186,146" id="route_AD7C18B1-E00F-4A52-A502-2F69477B99BE-KM-321.5762856547864-IN-3668045D-F6A3-4805-AEE7-D14EBB86147E-KM-367.6570519499666-GEGEN"/>
	<route edges="b99be-3-re b99be-2-re b99be-1-re" color="10,232,126" id="route_AD7C18B1-E00F-4A52-A502-2F69477B99BE-KM-301.5762856547864-GEGEN-AD7C18B1-E00F-4A52-A502-2F69477B99BE-KM-25-GEGEN"/>
	<route edges="b99be-1-re b99be-0-re 5572a-0 5572a-1" color="97,197,117" id="route_AD7C18B1-E00F-4A52-A502-2F69477B99BE-KM-25-GEGEN-B2F92D99-1C82-4BA3-BA38-1BE228B5572A-KM-45-IN"/>
	<route edges="b99be-1-re b99be-0-re 89cd1-0 89cd1-1" color="90,90,171" id="route_AD7C18B1-E00F-4A52-A502-2F69477B99BE-KM-25-GEGEN-27540D33-932C-4E7B-9385-BBC983A89CD1-KM-45-IN"/>
	<route edges="89cd1-1 89cd1-2 89cd1-3" color="139,128,140" id="route_27540D33-932C-4E7B-9385-BBC983A89CD1-KM-45-IN-27540D33-932C-4E7B-9385-BBC983A89CD1-KM-165.5616561823125-IN"/>
	<route edges="89cd1-3 89cd1-4 2f8e5-0 2f8e5-1" color="52,141,138" id="route_27540D33-932C-4E7B-9385-BBC983A89CD1-KM-165.5616561823125-IN-CE1D3FD9-1C34-402D-8224-E6A52532F8E5-KM-45-IN"/>
	<route edges="89cd1-3 89cd1-4 a5be4-0 a5be4-1" color="93,157,162" id="route_27540D33-932C-4E7B-9385-BBC983A89CD1-KM-165.5616561823125-IN-A1CA8F34-8A7C-49A4-A8DA-4B76996A5BE4-KM-45-IN"/>
	<route edges="89cd1-3-re 89cd1-2-re 89cd1-1-re" color="59,43,145" id="route_27540D33-932C-4E7B-9385-BBC983A89CD1-KM-145.5616561823125-GEGEN-27540D33-932C-4E7B-9385-BBC983A89CD1-KM-25-GEGEN"/>
	<route edges="89cd1-1-re 89cd1-0-re b99be-0 b99be-1" color="224,199,181" id="route_27540D33-932C-4E7B-9385-BBC983A89CD1-KM-25-GEGEN-AD7C18B1-E00F-4A52-A502-2F69477B99BE-KM-45-IN"/>
	<route edges="5572a-1 5572a-2 5572a-3" color="19,62,229" id="route_B2F92D99-1C82-4BA3-BA38-1BE228B5572A-KM-45-IN-B2F92D99-1C82-4BA3-BA38-1BE228B5572A-KM-852.2588211144425-IN"/>
	<route edges="5572a-3 5572a-4 f2d3f-0 f2d3f-1" color="18,133,13" id="route_B2F92D99-1C82-4BA3-BA38-1BE228B5572A-KM-852.2588211144425-IN-22E04EB6-61E0-45B4-A005-D4A9695F2D3F-KM-45-IN"/>
	<route edges="5572a-3 5572a-4 7a6b0-0 7a6b0-1" color="41,60,35" id="route_B2F92D99-1C82-4BA3-BA38-1BE228B5572A-KM-852.2588211144425-IN-4D44EABA-808A-49F0-BED6-A2371D67A6B0-KM-45-IN"/>
	<route edges="5572a-3-re 5572a-2-re 5572a-1-re" color="5,227,126" id="route_B2F92D99-1C82-4BA3-BA38-1BE228B5572A-KM-832.2588211144425-GEGEN-B2F92D99-1C82-4BA3-BA38-1BE228B5572A-KM-25-GEGEN"/>
	<route edges="5572a-1-re 5572a-0-re b99be-0 b99be-1" color="221,254,239" id="route_B2F92D99-1C82-4BA3-BA38-1BE228B5572A-KM-25-GEGEN-AD7C18B1-E00F-4A52-A502-2F69477B99BE-KM-45-IN"/>
	<route edges="2f8e5-1 2f8e5-2 2f8e5-3" color="109,100,32" id="route_CE1D3FD9-1C34-402D-8224-E6A52532F8E5-KM-45-IN-CE1D3FD9-1C34-402D-8224-E6A52532F8E5-KM-788.1457216628645-IN"/>
	<route edges="2f8e5-3 2f8e5-4 d80d0-0 d80d0-1" color="19,75,98" id="route_CE1D3FD9-1C34-402D-8224-E6A52532F8E5-KM-788.1457216628645-IN-F98CF4CC-E365-4F15-87C1-4801EADD80D0-KM-45-IN"/>
	<route edges="2f8e5-3-re 2f8e5-2-re 2f8e5-1-re" color="101,115,155" id="route_CE1D3FD9-1C34-402D-8224-E6A52532F8E5-KM-768.1457216628645-GEGEN-CE1D3FD9-1C34-402D-8224-E6A52532F8E5-KM-25-GEGEN"/>
	<route edges="2f8e5-1-re 2f8e5-0-re 89cd1-4-re 89cd1-3-re" color="246,35,216" id="route_CE1D3FD9-1C34-402D-8224-E6A52532F8E5-KM-25-GEGEN-27540D33-932C-4E7B-9385-BBC983A89CD1-KM-145.5616561823125-GEGEN"/>
	<route edges="a5be4-1 a5be4-2 a5be4-3" color="229,179,96" id="route_A1CA8F34-8A7C-49A4-A8DA-4B76996A5BE4-KM-45-IN-A1CA8F34-8A7C-49A4-A8DA-4B76996A5BE4-KM-238.52550007798908-IN"/>
	<route edges="a5be4-3 a5be4-4 7d020-0 592c8-4-re 592c8-3-re" color="55,180,217" id="route_A1CA8F34-8A7C-49A4-A8DA-4B76996A5BE4-KM-238.52550007798908-IN-4E932ADB-BDC6-41B2-8167-211EA55592C8-KM-1602.7448348066494-GEGEN"/>
	<route edges="a5be4-3 a5be4-4 7d020-0 9502a-4-re 9502a-3-re" color="28,48,176" id="route_A1CA8F34-8A7C-49A4-A8DA-4B76996A5BE4-KM-238.52550007798908-IN-F60C823E-0315-4D55-827E-9695C2E9502A-KM-1653.6383523495206-GEGEN"/>
	<route edges="a5be4-3-re a5be4-2-re a5be4-1-re" color="15,212,236" id="route_A1CA8F34-8A7C-49A4-A8DA-4B76996A5BE4-KM-218.52550007798908-GEGEN-A1CA8F34-8A7C-49A4-A8DA-4B76996A5BE4-KM-25-GEGEN"/>
	<route edges="a5be4-1-re a5be4-0-re 89cd1-4-re 89cd1-3-re" color="207,182,15" id="route_A1CA8F34-8A7C-49A4-A8DA-4B76996A5BE4-KM-25-GEGEN-27540D33-932C-4E7B-9385-BBC983A89CD1-KM-145.5616561823125-GEGEN"/>
	<route edges="d80d0-1 d80d0-2 d80d0-3" color="27,129,199" id="route_F98CF4CC-E365-4F15-87C1-4801EADD80D0-KM-45-IN-F98CF4CC-E365-4F15-87C1-4801EADD80D0-KM-169.7673894741766-IN"/>
	<route edges="d80d0-3 d80d0-4 37862-0 37862-1" color="105,139,207" id="route_F98CF4CC-E365-4F15-87C1-4801EADD80D0-KM-169.7673894741766-IN-E32401DD-28A0-43B5-824C-19A241137862-KM-45-IN"/>
	<route edges="d80d0-3-re d80d0-2-re d80d0-1-re" color="6,164,220" id="route_F98CF4CC-E365-4F15-87C1-4801EADD80D0-KM-149.7673894741766-GEGEN-F98CF4CC-E365-4F15-87C1-4801EADD80D0-KM-25-GEGEN"/>
	<route edges="d80d0-1-re d80d0-0-re 4e3d9-0 4e3d9-1" color="179,222,146" id="route_F98CF4CC-E365-4F15-87C1-4801EADD80D0-KM-25-GEGEN-434BD482-5190-4A82-88C6-781EDE44E3D9-KM-45-IN"/>
	<route edges="d80d0-1-re d80d0-0-re 2f8e5-4-re 2f8e5-3-re" color="249,16,63" id="route_F98CF4CC-E365-4F15-87C1-4801EADD80D0-KM-25-GEGEN-CE1D3FD9-1C34-402D-8224-E6A52532F8E5-KM-768.1457216628645-GEGEN"/>
	<route edges="4e3d9-1-re 4e3d9-0-re d80d0-0 d80d0-1" color="116,57,4" id="route_434BD482-5190-4A82-88C6-781EDE44E3D9-KM-25-GEGEN-F98CF4CC-E365-4F15-87C1-4801EADD80D0-KM-45-IN"/>
	<route edges="37862-1 37862-2 37862-3" color="118,204,106" id="route_E32401DD-28A0-43B5-824C-19A241137862-KM-45-IN-E32401DD-28A0-43B5-824C-19A241137862-KM-684.7733628877847-IN"/>
	<route edges="37862-3 37862-4 caa2e-0-re 78630-0 78630-1" color="42,223,111" id="route_E32401DD-28A0-43B5-824C-19A241137862-KM-684.7733628877847-IN-ED771219-73B2-4660-A359-4A54D6678630-KM-45-IN"/>
	<route edges="37862-3 37862-4 caa2e-0-re b4ceb-0 b4ceb-1" color="235,214,224" id="route_E32401DD-28A0-43B5-824C-19A241137862-KM-684.7733628877847-IN-6474F619-F6CE-4211-B331-6AFCC3FB4CEB-KM-45-IN"/>
	<route edges="37862-3 37862-4 5ce9c-0 5ce9c-1" color="27,159,25" id="route_E32401DD-28A0-43B5-824C-19A241137862-KM-684.7733628877847-IN-E4390BAA-D637-427D-95D8-0FD18DC5CE9C-KM-45-IN"/>
	<route edges="37862-3-re 37862-2-re 37862-1-re" color="15,73,187" id="route_E32401DD-28A0-43B5-824C-19A241137862-KM-664.7733628877847-GEGEN-E32401DD-28A0-43B5-824C-19A241137862-KM-25-GEGEN"/>
	<route edges="37862-1-re 37862-0-re d80d0-4-re d80d0-3-re" color="92,201,98" id="route_E32401DD-28A0-43B5-824C-19A241137862-KM-25-GEGEN-F98CF4CC-E365-4F15-87C1-4801EADD80D0-KM-149.7673894741766-GEGEN"/>
	<route edges="37862-1-re 37862-0-re 5f4ca-0 5f4ca-1" color="179,249,187" id="route_E32401DD-28A0-43B5-824C-19A241137862-KM-25-GEGEN-4694A019-CB15-4B1C-AB62-DB9F7835F4CA-KM-45-IN"/>
	<route edges="5f4ca-1-re 5f4ca-0-re 37862-0 37862-1" color="25,121,113" id="route_4694A019-CB15-4B1C-AB62-DB9F7835F4CA-KM-25-GEGEN-E32401DD-28A0-43B5-824C-19A241137862-KM-45-IN"/>
	<route edges="79fa0-1 79fa0-2 79fa0-3" color="23,32,240" id="route_1EE20C7F-4A78-4D44-851A-801CE9A79FA0-KM-45-IN-1EE20C7F-4A78-4D44-851A-801CE9A79FA0-KM-254.45431792963808-IN"/>
	<route edges="79fa0-3 79fa0-4 a0938-0 a0938-1" color="204,34,150" id="route_1EE20C7F-4A78-4D44-851A-801CE9A79FA0-KM-254.45431792963808-IN-3554F1B9-5AFE-439E-8CBF-8FE83D1A0938-KM-45-IN"/>
	<route edges="79fa0-3-re 79fa0-2-re 79fa0-1-re" color="26,226,155" id="route_1EE20C7F-4A78-4D44-851A-801CE9A79FA0-KM-234.45431792963808-GEGEN-1EE20C7F-4A78-4D44-851A-801CE9A79FA0-KM-25-GEGEN"/>
	<route edges="79fa0-1-re 79fa0-0-re d93ca-0 21b00-4-re 21b00-3-re" color="241,59,87" id="route_1EE20C7F-4A78-4D44-851A-801CE9A79FA0-KM-25-GEGEN-383843E9-4669-400F-B6C2-038A7A321B00-KM-128.17881652121687-GEGEN"/>
	<route edges="79fa0-1-re 79fa0-0-re d93ca-0 78630-4-re 78630-3-re" color="112,84,188" id="route_1EE20C7F-4A78-4D44-851A-801CE9A79FA0-KM-25-GEGEN-ED771219-73B2-4660-A359-4A54D6678630-KM-1651.7895552905081-GEGEN"/>
	<route edges="28fda-1 28fda-2 28fda-3" color="210,61,64" id="route_8B58C1CB-A35B-4DA0-AFCD-1D5FD0A28FDA-KM-45-IN-8B58C1CB-A35B-4DA0-AFCD-1D5FD0A28FDA-KM-1010.0-IN"/>
	<route edges="28fda-3 28fda-4 28fda-5" color="93,161,119" id="route_8B58C1CB-A35B-4DA0-AFCD-1D5FD0A28FDA-KM-1010.0-IN-8B58C1CB-A35B-4DA0-AFCD-1D5FD0A28FDA-KM-2010.0-IN"/>
	<route edges="28fda-5 28fda-6 28fda-7" color="170,30,203" id="route_8B58C1CB-A35B-4DA0-AFCD-1D5FD0A28FDA-KM-2010.0-IN-8B58C1CB-A35B-4DA0-AFCD-1D5FD0A28FDA-KM-3010.0-IN"/>
	<route edges="28fda-7 28fda-8 28fda-9" color="42,12,213" id="route_8B58C1CB-A35B-4DA0-AFCD-1D5FD0A28FDA-KM-3010.0-IN-8B58C1CB-A35B-4DA0-AFCD-1D5FD0A28FDA-KM-4010.0-IN"/>
	<route edges="28fda-9 28fda-10 28fda-11" color="10,16,249" id="route_8B58C1CB-A35B-4DA0-AFCD-1D5FD0A28FDA-KM-4010.0-IN-8B58C1CB-A35B-4DA0-AFCD-1D5FD0A28FDA-KM-5560.253303703657-IN"/>
	<route edges="28fda-11 28fda-12 1bda8-6-re 1bda8-5-re" color="253,39,103" id="route_8B58C1CB-A35B-4DA0-AFCD-1D5FD0A28FDA-KM-5560.253303703657-IN-1FD1693B-0A1D-4AA2-BFFA-17510CB1BDA8-KM-2065.2638939954745-GEGEN"/>
	<route edges="28fda-11 28fda-12 4cf62-4-re 4cf62-3-re" color="97,105,69" id="route_8B58C1CB-A35B-4DA0-AFCD-1D5FD0A28FDA-KM-5560.253303703657-IN-E468D3DA-9E5F-4087-AA87-14B2F594CF62-KM-1326.0689693348354-GEGEN"/>
	<route edges="28fda-11-re 28fda-10-re 28fda-9-re" color="213,83,100" id="route_8B58C1CB-A35B-4DA0-AFCD-1D5FD0A28FDA-KM-5540.253303703657-GEGEN-8B58C1CB-A35B-4DA0-AFCD-1D5FD0A28FDA-KM-3990.0-GEGEN"/>
	<route edges="28fda-9-re 28fda-8-re 28fda-7-re" color="143,49,89" id="route_8B58C1CB-A35B-4DA0-AFCD-1D5FD0A28FDA-KM-3990.0-GEGEN-8B58C1CB-A35B-4DA0-AFCD-1D5FD0A28FDA-KM-2990.0-GEGEN"/>
	<route edges="28fda-7-re 28fda-6-re 28fda-5-re" color="154,159,222" id="route_8B58C1CB-A35B-4DA0-AFCD-1D5FD0A28FDA-KM-2990.0-GEGEN-8B58C1CB-A35B-4DA0-AFCD-1D5FD0A28FDA-KM-1990.0-GEGEN"/>
	<route edges="28fda-5-re 28fda-4-re 28fda-3-re" color="43,200,38" id="route_8B58C1CB-A35B-4DA0-AFCD-1D5FD0A28FDA-KM-1990.0-GEGEN-8B58C1CB-A35B-4DA0-AFCD-1D5FD0A28FDA-KM-990.0-GEGEN"/>
	<route edges="28fda-3-re 28fda-2-re 28fda-1-re" color="67,174,230" id="route_8B58C1CB-A35B-4DA0-AFCD-1D5FD0A28FDA-KM-990.0-GEGEN-8B58C1CB-A35B-4DA0-AFCD-1D5FD0A28FDA-KM-25-GEGEN"/>
	<route edges="28fda-1-re 28fda-0-re d93ca-0 21b00-4-re 21b00-3-re" color="238,203,255" id="route_8B58C1CB-A35B-4DA0-AFCD-1D5FD0A28FDA-KM-25-GEGEN-383843E9-4669-400F-B6C2-038A7A321B00-KM-128.17881652121687-GEGEN"/>
	<route edges="28fda-1-re 28fda-0-re d93ca-0 78630-4-re 78630-3-re" color="93,10,173" id="route_8B58C1CB-A35B-4DA0-AFCD-1D5FD0A28FDA-KM-25-GEGEN-ED771219-73B2-4660-A359-4A54D6678630-KM-1651.7895552905081-GEGEN"/>
	<route edges="86419-1 86419-2 86419-3" color="2,173,73" id="route_898FBCBF-C36B-40FA-81DB-61BB46486419-KM-45-IN-898FBCBF-C36B-40FA-81DB-61BB46486419-KM-463.81731618508263-IN"/>
	<route edges="86419-3 86419-4 85787-0-re f9be5-4-re f9be5-3-re" color="161,191,45" id="route_898FBCBF-C36B-40FA-81DB-61BB46486419-KM-463.81731618508263-IN-912846C2-210B-46C1-B1A9-D4EA737F9BE5-KM-1169.3495270408275-GEGEN"/>
	<route edges="86419-3 86419-4 85787-0-re b4ceb-4-re b4ceb-3-re" color="64,236,14" id="route_898FBCBF-C36B-40FA-81DB-61BB46486419-KM-463.81731618508263-IN-6474F619-F6CE-4211-B331-6AFCC3FB4CEB-KM-1432.8979874733736-GEGEN"/>
	<route edges="86419-3-re 86419-2-re 86419-1-re" color="31,218,101" id="route_898FBCBF-C36B-40FA-81DB-61BB46486419-KM-443.81731618508263-GEGEN-898FBCBF-C36B-40FA-81DB-61BB46486419-KM-25-GEGEN"/>
	<route edges="86419-1-re 86419-0-re a0938-0 a0938-1" color="8,158,39" id="route_898FBCBF-C36B-40FA-81DB-61BB46486419-KM-25-GEGEN-3554F1B9-5AFE-439E-8CBF-8FE83D1A0938-KM-45-IN"/>
	<route edges="a0938-1 a0938-2 a0938-3" color="27,189,168" id="route_3554F1B9-5AFE-439E-8CBF-8FE83D1A0938-KM-45-IN-3554F1B9-5AFE-439E-8CBF-8FE83D1A0938-KM-1908.0650690078241-IN"/>
	<route edges="a0938-3 a0938-4 d0fb0-0 d0fb0-1" color="71,51,246" id="route_3554F1B9-5AFE-439E-8CBF-8FE83D1A0938-KM-1908.0650690078241-IN-BECF4DA7-5D75-41BD-AE9F-B77203DD0FB0-KM-45-IN"/>
	<route edges="a0938-3 a0938-4 e01f4-0 3e0d9-0 eb9e6-0-re db293-0 63345-0 63345-1" color="220,98,184" id="route_3554F1B9-5AFE-439E-8CBF-8FE83D1A0938-KM-1908.0650690078241-IN-D0819A68-B912-4B34-9A7B-EE1607763345-KM-45-IN"/>
	<route edges="a0938-3 a0938-4 e01f4-0 3e0d9-0 eb9e6-0-re db293-0 ef286-0 ef286-1" color="95,73,177" id="route_3554F1B9-5AFE-439E-8CBF-8FE83D1A0938-KM-1908.0650690078241-IN-AB59958A-0B0C-4B8C-87AB-AFCCD42EF286-KM-45-IN"/>
	<route edges="a0938-3 a0938-4 e01f4-0 3e0d9-0 bcba1-0 bcba1-1" color="20,108,72" id="route_3554F1B9-5AFE-439E-8CBF-8FE83D1A0938-KM-1908.0650690078241-IN-F9CEFFC5-1D79-445E-A97B-8054C02BCBA1-KM-45-IN"/>
	<route edges="a0938-3-re a0938-2-re a0938-1-re" color="234,138,122" id="route_3554F1B9-5AFE-439E-8CBF-8FE83D1A0938-KM-1888.0650690078241-GEGEN-3554F1B9-5AFE-439E-8CBF-8FE83D1A0938-KM-25-GEGEN"/>
	<route edges="a0938-1-re a0938-0-re 86419-0 86419-1" color="51,98,1" id="route_3554F1B9-5AFE-439E-8CBF-8FE83D1A0938-KM-25-GEGEN-898FBCBF-C36B-40FA-81DB-61BB46486419-KM-45-IN"/>
	<route edges="a0938-1-re a0938-0-re 79fa0-4-re 79fa0-3-re" color="52,172,26" id="route_3554F1B9-5AFE-439E-8CBF-8FE83D1A0938-KM-25-GEGEN-1EE20C7F-4A78-4D44-851A-801CE9A79FA0-KM-234.45431792963808-GEGEN"/>
	<route edges="2d770-1 2d770-2 2d770-3" color="58,189,102" id="route_079E1467-732C-4490-AA5D-6D219742D770-KM-45-IN-079E1467-732C-4490-AA5D-6D219742D770-KM-1010.0-IN"/>
	<route edges="2d770-3 2d770-4 2d770-5" color="94,8,170" id="route_079E1467-732C-4490-AA5D-6D219742D770-KM-1010.0-IN-079E1467-732C-4490-AA5D-6D219742D770-KM-2968.0134948223827-IN"/>
	<route edges="2d770-5 2d770-6 97d11-0 97d11-1" color="72,158,107" id="route_079E1467-732C-4490-AA5D-6D219742D770-KM-2968.0134948223827-IN-B477857E-F9EE-4CA4-AF20-25A27A097D11-KM-45-IN"/>
	<route edges="2d770-5-re 2d770-4-re 2d770-3-re" color="44,103,109" id="route_079E1467-732C-4490-AA5D-6D219742D770-KM-2948.0134948223827-GEGEN-079E1467-732C-4490-AA5D-6D219742D770-KM-990.0-GEGEN"/>
	<route edges="2d770-3-re 2d770-2-re 2d770-1-re" color="174,159,233" id="route_079E1467-732C-4490-AA5D-6D219742D770-KM-990.0-GEGEN-079E1467-732C-4490-AA5D-6D219742D770-KM-25-GEGEN"/>
	<route edges="2d770-1-re 2d770-0-re f41f4-0 ef286-4-re ef286-3-re" color="255,104,248" id="route_079E1467-732C-4490-AA5D-6D219742D770-KM-25-GEGEN-AB59958A-0B0C-4B8C-87AB-AFCCD42EF286-KM-320.8087986779541-GEGEN"/>
	<route edges="2d770-1-re 2d770-0-re f41f4-0 e10a3-0 8eea4-0-re 45921-0 63345-4-re 63345-3-re" color="23,88,228" id="route_079E1467-732C-4490-AA5D-6D219742D770-KM-25-GEGEN-D0819A68-B912-4B34-9A7B-EE1607763345-KM-161.66400492600528-GEGEN"/>
	<route edges="2d770-1-re 2d770-0-re f41f4-0 e10a3-0 8eea4-0-re 45921-0 a7e78-0 613bf-0 613bf-1" color="32,15,205" id="route_079E1467-732C-4490-AA5D-6D219742D770-KM-25-GEGEN-00BF39EB-A477-4678-AAAC-C7ABA91613BF-KM-45-IN"/>
	<route edges="2d770-1-re 2d770-0-re f41f4-0 e10a3-0 8eea4-0-re 45921-0 a7e78-0 05113-0 da271-4-re da271-3-re" color="53,55,204" id="route_079E1467-732C-4490-AA5D-6D219742D770-KM-25-GEGEN-188BD31E-3198-4AC2-9DC8-B126FD7DA271-KM-535.7322343251935-GEGEN"/>
	<route edges="2d770-1-re 2d770-0-re f41f4-0 e10a3-0 8eea4-0-re 45921-0 a7e78-0 05113-0 6bd87-0 ab324-4-re ab324-3-re" color="29,145,170" id="route_079E1467-732C-4490-AA5D-6D219742D770-KM-25-GEGEN-BE2A13D6-61FE-4706-9C41-0EA39F9AB324-KM-375.60889533993935-GEGEN"/>
	<route edges="2862c-1 2862c-2 2862c-3" color="184,112,26" id="route_AEBAD356-4E96-4657-91C4-D6E2B202862C-KM-45-IN-AEBAD356-4E96-4657-91C4-D6E2B202862C-KM-96.47358751756049-IN"/>
	<route edges="2862c-3 2862c-4 d19c9-4-re d19c9-3-re" color="110,225,27" id="route_AEBAD356-4E96-4657-91C4-D6E2B202862C-KM-96.47358751756049-IN-10FA1130-027E-4C1E-BF31-86C1A50D19C9-KM-75.25638756029988-GEGEN"/>
	<route edges="2862c-3 2862c-4 e0b0a-0 e0b0a-1" color="173,18,136" id="route_AEBAD356-4E96-4657-91C4-D6E2B202862C-KM-96.47358751756049-IN-29D37C06-A7DF-4862-ACD1-799B94DE0B0A-KM-45-IN"/>
	<route edges="2862c-3-re 2862c-2-re 2862c-1-re" color="60,206,168" id="route_AEBAD356-4E96-4657-91C4-D6E2B202862C-KM-76.47358751756049-GEGEN-AEBAD356-4E96-4657-91C4-D6E2B202862C-KM-25-GEGEN"/>
	<route edges="2862c-1-re 2862c-0-re d4690-0 d4690-1" color="49,110,234" id="route_AEBAD356-4E96-4657-91C4-D6E2B202862C-KM-25-GEGEN-553D37F2-0D61-49A7-8D02-DC62CFBD4690-KM-45-IN"/>
	<route edges="d4690-1 d4690-2 d4690-3" color="27,225,121" id="route_553D37F2-0D61-49A7-8D02-DC62CFBD4690-KM-45-IN-553D37F2-0D61-49A7-8D02-DC62CFBD4690-KM-196.352947606197-IN"/>
	<route edges="d4690-3 d4690-4 25a85-4-re 25a85-3-re" color="106,61,93" id="route_553D37F2-0D61-49A7-8D02-DC62CFBD4690-KM-196.352947606197-IN-8478E5C5-0B89-42FA-A20E-8DA743825A85-KM-147.7220062676434-GEGEN"/>
	<route edges="d4690-3 d4690-4 54e06-4-re 54e06-3-re" color="72,13,14" id="route_553D37F2-0D61-49A7-8D02-DC62CFBD4690-KM-196.352947606197-IN-CD9EF758-E348-4258-BC5A-6B8D5F054E06-KM-738.9329257464503-GEGEN"/>
	<route edges="d4690-3-re d4690-2-re d4690-1-re" color="7,112,68" id="route_553D37F2-0D61-49A7-8D02-DC62CFBD4690-KM-176.352947606197-GEGEN-553D37F2-0D61-49A7-8D02-DC62CFBD4690-KM-25-GEGEN"/>
	<route edges="d4690-1-re d4690-0-re 2862c-0 2862c-1" color="161,75,90" id="route_553D37F2-0D61-49A7-8D02-DC62CFBD4690-KM-25-GEGEN-AEBAD356-4E96-4657-91C4-D6E2B202862C-KM-45-IN"/>
	<route edges="d4690-1-re d4690-0-re 9b5da-0 c87b7-0 dffcd-0 dffcd-1" color="163,74,90" id="route_553D37F2-0D61-49A7-8D02-DC62CFBD4690-KM-25-GEGEN-5E07EEC4-62CC-43D7-A265-A9BD412DFFCD-KM-45-IN"/>
	<route edges="d4690-1-re d4690-0-re 9b5da-0 c87b7-0 321bf-4-re 321bf-3-re" color="175,64,87" id="route_553D37F2-0D61-49A7-8D02-DC62CFBD4690-KM-25-GEGEN-93F4CB60-9382-44CB-8558-6E18E86321BF-KM-1029.2555641663412-GEGEN"/>
	<route edges="d4690-1-re d4690-0-re 9b5da-0 d8db9-0 d8db9-1" color="159,132,68" id="route_553D37F2-0D61-49A7-8D02-DC62CFBD4690-KM-25-GEGEN-58A56CFE-9641-4F5E-952D-F7CFDDDD8DB9-KM-45-IN"/>
	<route edges="d8db9-1 d8db9-2 d8db9-3" color="103,198,51" id="route_58A56CFE-9641-4F5E-952D-F7CFDDDD8DB9-KM-45-IN-58A56CFE-9641-4F5E-952D-F7CFDDDD8DB9-KM-1077.9134160895494-IN"/>
	<route edges="d8db9-3 d8db9-4 61ea9-0 66a23-0 ca847-0 ca847-1" color="235,52,42" id="route_58A56CFE-9641-4F5E-952D-F7CFDDDD8DB9-KM-1077.9134160895494-IN-C22F799D-54B1-4EE9-A1D2-25D4C7CCA847-KM-45-IN"/>
	<route edges="d8db9-3-re d8db9-2-re d8db9-1-re" color="9,140,62" id="route_58A56CFE-9641-4F5E-952D-F7CFDDDD8DB9-KM-1057.9134160895494-GEGEN-58A56CFE-9641-4F5E-952D-F7CFDDDD8DB9-KM-25-GEGEN"/>
	<route edges="d8db9-1-re d8db9-0-re 9b5da-0-re d4690-0 d4690-1" color="213,154,69" id="route_58A56CFE-9641-4F5E-952D-F7CFDDDD8DB9-KM-25-GEGEN-553D37F2-0D61-49A7-8D02-DC62CFBD4690-KM-45-IN"/>
	<route edges="321bf-1 321bf-2 321bf-3" color="78,162,36" id="route_93F4CB60-9382-44CB-8558-6E18E86321BF-KM-45-IN-93F4CB60-9382-44CB-8558-6E18E86321BF-KM-1049.2555641663412-IN"/>
	<route edges="321bf-3 321bf-4 c87b7-0-re 9b5da-0-re d4690-0 d4690-1" color="236,240,189" id="route_93F4CB60-9382-44CB-8558-6E18E86321BF-KM-1049.2555641663412-IN-553D37F2-0D61-49A7-8D02-DC62CFBD4690-KM-45-IN"/>
	<route edges="321bf-3-re 321bf-2-re 321bf-1-re" color="137,168,197" id="route_93F4CB60-9382-44CB-8558-6E18E86321BF-KM-1029.2555641663412-GEGEN-93F4CB60-9382-44CB-8558-6E18E86321BF-KM-25-GEGEN"/>
	<route edges="321bf-1-re 321bf-0-re 66a23-0 ca847-0 ca847-1" color="185,7,196" id="route_93F4CB60-9382-44CB-8558-6E18E86321BF-KM-25-GEGEN-C22F799D-54B1-4EE9-A1D2-25D4C7CCA847-KM-45-IN"/>
	<route edges="ca847-1 ca847-2 ca847-3" color="53,239,112" id="route_C22F799D-54B1-4EE9-A1D2-25D4C7CCA847-KM-45-IN-C22F799D-54B1-4EE9-A1D2-25D4C7CCA847-KM-455.0663329602517-IN"/>
	<route edges="ca847-3 ca847-4 d0ed9-0 d0ed9-1" color="103,22,73" id="route_C22F799D-54B1-4EE9-A1D2-25D4C7CCA847-KM-455.0663329602517-IN-DA3B9D6B-9F29-47E9-AC88-F2E9EECD0ED9-KM-45-IN"/>
	<route edges="ca847-3 ca847-4 717bd-0 717bd-1" color="67,206,181" id="route_C22F799D-54B1-4EE9-A1D2-25D4C7CCA847-KM-455.0663329602517-IN-B40C4445-1B2E-4BAD-97E1-15D4B78717BD-KM-45-IN"/>
	<route edges="ca847-3-re ca847-2-re ca847-1-re" color="183,165,184" id="route_C22F799D-54B1-4EE9-A1D2-25D4C7CCA847-KM-435.0663329602517-GEGEN-C22F799D-54B1-4EE9-A1D2-25D4C7CCA847-KM-25-GEGEN"/>
	<route edges="ca847-1-re ca847-0-re 66a23-0-re 61ea9-0-re 362c1-0 2d7de-4-re 2d7de-3-re" color="144,196,131" id="route_C22F799D-54B1-4EE9-A1D2-25D4C7CCA847-KM-25-GEGEN-37FFAA37-EFD4-4A33-BF83-9FA68FA2D7DE-KM-928.2641741372947-GEGEN"/>
	<route edges="ca847-1-re ca847-0-re 66a23-0-re 61ea9-0-re d8db9-4-re d8db9-3-re" color="11,238,240" id="route_C22F799D-54B1-4EE9-A1D2-25D4C7CCA847-KM-25-GEGEN-58A56CFE-9641-4F5E-952D-F7CFDDDD8DB9-KM-1057.9134160895494-GEGEN"/>
	<route edges="ca847-1-re ca847-0-re 66a23-0-re 321bf-0 321bf-1" color="185,251,24" id="route_C22F799D-54B1-4EE9-A1D2-25D4C7CCA847-KM-25-GEGEN-93F4CB60-9382-44CB-8558-6E18E86321BF-KM-45-IN"/>
	<route edges="ca847-1-re ca847-0-re 9b5f5-0 7e7cc-4-re 7e7cc-3-re" color="152,94,187" id="route_C22F799D-54B1-4EE9-A1D2-25D4C7CCA847-KM-25-GEGEN-4FAAECCA-AC63-45DD-98D8-95CB7897E7CC-KM-894.5519844172353-GEGEN"/>
	<route edges="ca847-1-re ca847-0-re 9b5f5-0 55369-0 42dfc-4-re 42dfc-3-re" color="40,166,78" id="route_C22F799D-54B1-4EE9-A1D2-25D4C7CCA847-KM-25-GEGEN-3A3504FE-B8F9-46B9-80F6-15F0DFA42DFC-KM-870.2218839305359-GEGEN"/>
	<route edges="ca847-1-re ca847-0-re 9b5f5-0 55369-0 fa586-0-re d4410-0 e0b0a-4-re e0b0a-3-re" color="166,62,240" id="route_C22F799D-54B1-4EE9-A1D2-25D4C7CCA847-KM-25-GEGEN-29D37C06-A7DF-4862-ACD1-799B94DE0B0A-KM-894.6100386400316-GEGEN"/>
	<route edges="ca847-1-re ca847-0-re 9b5f5-0 55369-0 fa586-0-re d4410-0 05030-4-re 05030-3-re" color="2,233,150" id="route_C22F799D-54B1-4EE9-A1D2-25D4C7CCA847-KM-25-GEGEN-A1001821-8C0E-4B56-80CC-385AA7105030-KM-254.39386848397498-GEGEN"/>
	<route edges="717bd-1 717bd-2 717bd-3" color="29,93,151" id="route_B40C4445-1B2E-4BAD-97E1-15D4B78717BD-KM-45-IN-B40C4445-1B2E-4BAD-97E1-15D4B78717BD-KM-79.28485462572691-IN"/>
	<route edges="717bd-3 717bd-4 d5716-0 d5716-1" color="183,208,46" id="route_B40C4445-1B2E-4BAD-97E1-15D4B78717BD-KM-79.28485462572691-IN-76BE2D32-D070-4DCB-A829-BEAF89DD5716-KM-45-IN"/>
	<route edges="717bd-3-re 717bd-2-re 717bd-1-re" color="63,16,21" id="route_B40C4445-1B2E-4BAD-97E1-15D4B78717BD-KM-59.28485462572691-GEGEN-B40C4445-1B2E-4BAD-97E1-15D4B78717BD-KM-25-GEGEN"/>
	<route edges="717bd-1-re 717bd-0-re ca847-4-re ca847-3-re" color="187,77,63" id="route_B40C4445-1B2E-4BAD-97E1-15D4B78717BD-KM-25-GEGEN-C22F799D-54B1-4EE9-A1D2-25D4C7CCA847-KM-435.0663329602517-GEGEN"/>
	<route edges="d0ed9-1 d0ed9-2 d0ed9-3" color="187,166,174" id="route_DA3B9D6B-9F29-47E9-AC88-F2E9EECD0ED9-KM-45-IN-DA3B9D6B-9F29-47E9-AC88-F2E9EECD0ED9-KM-90.49227411094549-IN"/>
	<route edges="d0ed9-3 d0ed9-4 6bd4f-0 6bd4f-1" color="85,228,255" id="route_DA3B9D6B-9F29-47E9-AC88-F2E9EECD0ED9-KM-90.49227411094549-IN-EA2BA7C8-345C-483F-B01A-5F3D5666BD4F-KM-45-IN"/>
	<route edges="d0ed9-3-re d0ed9-2-re d0ed9-1-re" color="48,65,189" id="route_DA3B9D6B-9F29-47E9-AC88-F2E9EECD0ED9-KM-70.49227411094549-GEGEN-DA3B9D6B-9F29-47E9-AC88-F2E9EECD0ED9-KM-25-GEGEN"/>
	<route edges="d0ed9-1-re d0ed9-0-re ca847-4-re ca847-3-re" color="142,195,116" id="route_DA3B9D6B-9F29-47E9-AC88-F2E9EECD0ED9-KM-25-GEGEN-C22F799D-54B1-4EE9-A1D2-25D4C7CCA847-KM-435.0663329602517-GEGEN"/>
	<route edges="d5716-1 d5716-2 d5716-3" color="152,28,101" id="route_76BE2D32-D070-4DCB-A829-BEAF89DD5716-KM-45-IN-76BE2D32-D070-4DCB-A829-BEAF89DD5716-KM-984.5542787261779-IN"/>
	<route edges="d5716-3 d5716-4 dbfcc-0 dbfcc-1" color="233,119,27" id="route_76BE2D32-D070-4DCB-A829-BEAF89DD5716-KM-984.5542787261779-IN-5786D808-DBB4-4139-A81A-07BBCAFDBFCC-KM-45-IN"/>
	<route edges="d5716-3-re d5716-2-re d5716-1-re" color="17,206,234" id="route_76BE2D32-D070-4DCB-A829-BEAF89DD5716-KM-964.5542787261779-GEGEN-76BE2D32-D070-4DCB-A829-BEAF89DD5716-KM-25-GEGEN"/>
	<route edges="d5716-1-re d5716-0-re 85549-0 85549-1" color="80,204,219" id="route_76BE2D32-D070-4DCB-A829-BEAF89DD5716-KM-25-GEGEN-793E550A-D7E0-45D6-84F6-D6670FE85549-KM-45-IN"/>
	<route edges="d5716-1-re d5716-0-re 717bd-4-re 717bd-3-re" color="172,63,128" id="route_76BE2D32-D070-4DCB-A829-BEAF89DD5716-KM-25-GEGEN-B40C4445-1B2E-4BAD-97E1-15D4B78717BD-KM-59.28485462572691-GEGEN"/>
	<route edges="85549-1 85549-2 85549-3" color="98,202,187" id="route_793E550A-D7E0-45D6-84F6-D6670FE85549-KM-45-IN-793E550A-D7E0-45D6-84F6-D6670FE85549-KM-101.34410270980774-IN"/>
	<route edges="85549-3 85549-4 d8279-0 d8279-1" color="22,249,38" id="route_793E550A-D7E0-45D6-84F6-D6670FE85549-KM-101.34410270980774-IN-69D480AA-D99C-46B6-BFD2-6F7B3FCD8279-KM-45-IN"/>
	<route edges="85549-3-re 85549-2-re 85549-1-re" color="251,149,102" id="route_793E550A-D7E0-45D6-84F6-D6670FE85549-KM-81.34410270980774-GEGEN-793E550A-D7E0-45D6-84F6-D6670FE85549-KM-25-GEGEN"/>
	<route edges="85549-1-re 85549-0-re d5716-0 d5716-1" color="110,56,191" id="route_793E550A-D7E0-45D6-84F6-D6670FE85549-KM-25-GEGEN-76BE2D32-D070-4DCB-A829-BEAF89DD5716-KM-45-IN"/>
	<route edges="0f92c-1 0f92c-2 0f92c-3" color="77,21,186" id="route_7BEC9D69-E0AB-48CF-8352-D20D00E0F92C-KM-11.0-IN-7BEC9D69-E0AB-48CF-8352-D20D00E0F92C-KM-1246.872029481161-IN"/>
	<route edges="0f92c-3 0f92c-4 0c42b-0 0c42b-1" color="155,40,71" id="route_7BEC9D69-E0AB-48CF-8352-D20D00E0F92C-KM-1246.872029481161-IN-1D3099BE-C660-4752-A649-8E127580C42B-KM-45-IN"/>
	<route edges="0f92c-3-re 0f92c-2-re 0f92c-1-re" color="225,142,215" id="route_7BEC9D69-E0AB-48CF-8352-D20D00E0F92C-KM-1226.872029481161-GEGEN-7BEC9D69-E0AB-48CF-8352-D20D00E0F92C-KM-5-GEGEN"/>
	<route edges="b71e2-1 b71e2-2 b71e2-3" color="233,134,200" id="route_41575551-CADC-4A2D-B80B-A3DC918B71E2-KM-45-IN-41575551-CADC-4A2D-B80B-A3DC918B71E2-KM-1615.0764173282626-IN"/>
	<route edges="b71e2-3 b71e2-4 35772-0 097c2-0 097c2-1" color="18,58,213" id="route_41575551-CADC-4A2D-B80B-A3DC918B71E2-KM-1615.0764173282626-IN-A8D9862B-F651-4EF1-936B-7FADAD2097C2-KM-45-IN"/>
	<route edges="b71e2-3 b71e2-4 35772-0 2a53e-0 2a53e-1" color="36,203,18" id="route_41575551-CADC-4A2D-B80B-A3DC918B71E2-KM-1615.0764173282626-IN-98ED8036-D219-4C5B-A4FD-7A116752A53E-KM-45-IN"/>
	<route edges="b71e2-3-re b71e2-2-re b71e2-1-re" color="8,163,161" id="route_41575551-CADC-4A2D-B80B-A3DC918B71E2-KM-1595.0764173282626-GEGEN-41575551-CADC-4A2D-B80B-A3DC918B71E2-KM-25-GEGEN"/>
	<route edges="b71e2-1-re b71e2-0-re 97087-0 ffad7-4-re ffad7-3-re" color="41,135,67" id="route_41575551-CADC-4A2D-B80B-A3DC918B71E2-KM-25-GEGEN-695880CE-C18A-4FF5-9858-5EBAFC4FFAD7-KM-191.28309988659058-GEGEN"/>
	<route edges="b71e2-1-re b71e2-0-re 97087-0 88f53-0-re 46f69-4-re 46f69-3-re" color="16,94,32" id="route_41575551-CADC-4A2D-B80B-A3DC918B71E2-KM-25-GEGEN-CBB6782D-006B-435C-8C08-9D4FA9C46F69-KM-107.93993372271524-GEGEN"/>
	<route edges="6219e-1 6219e-2 6219e-3" color="175,7,103" id="route_6CA3C788-3A46-47D4-9F40-403FA346219E-KM-45-IN-6CA3C788-3A46-47D4-9F40-403FA346219E-KM-1010.0-IN"/>
	<route edges="6219e-3 6219e-4 6219e-5" color="109,135,14" id="route_6CA3C788-3A46-47D4-9F40-403FA346219E-KM-1010.0-IN-6CA3C788-3A46-47D4-9F40-403FA346219E-KM-2010.0-IN"/>
	<route edges="6219e-5 6219e-6 6219e-7" color="167,13,44" id="route_6CA3C788-3A46-47D4-9F40-403FA346219E-KM-2010.0-IN-6CA3C788-3A46-47D4-9F40-403FA346219E-KM-3170.0135601901507-IN"/>
	<route edges="6219e-7 6219e-8 ee5a9-0 ee5a9-1" color="39,195,25" id="route_6CA3C788-3A46-47D4-9F40-403FA346219E-KM-3170.0135601901507-IN-5E0C96EA-B20F-4A5E-86C6-C99BBC5EE5A9-KM-45-IN"/>
	<route edges="6219e-7 6219e-8 1efaf-0 1efaf-1" color="7,86,61" id="route_6CA3C788-3A46-47D4-9F40-403FA346219E-KM-3170.0135601901507-IN-AAC83467-312C-4121-ADB8-2BD47671EFAF-KM-45-IN"/>
	<route edges="6219e-7-re 6219e-6-re 6219e-5-re" color="111,38,242" id="route_6CA3C788-3A46-47D4-9F40-403FA346219E-KM-3150.0135601901507-GEGEN-6CA3C788-3A46-47D4-9F40-403FA346219E-KM-1990.0-GEGEN"/>
	<route edges="6219e-5-re 6219e-4-re 6219e-3-re" color="12,245,27" id="route_6CA3C788-3A46-47D4-9F40-403FA346219E-KM-1990.0-GEGEN-6CA3C788-3A46-47D4-9F40-403FA346219E-KM-990.0-GEGEN"/>
	<route edges="6219e-3-re 6219e-2-re 6219e-1-re" color="154,155,186" id="route_6CA3C788-3A46-47D4-9F40-403FA346219E-KM-990.0-GEGEN-6CA3C788-3A46-47D4-9F40-403FA346219E-KM-25-GEGEN"/>
	<route edges="6219e-1-re 6219e-0-re 97087-0 ffad7-4-re ffad7-3-re" color="241,123,44" id="route_6CA3C788-3A46-47D4-9F40-403FA346219E-KM-25-GEGEN-695880CE-C18A-4FF5-9858-5EBAFC4FFAD7-KM-191.28309988659058-GEGEN"/>
	<route edges="6219e-1-re 6219e-0-re 97087-0 88f53-0-re 46f69-4-re 46f69-3-re" color="202,63,225" id="route_6CA3C788-3A46-47D4-9F40-403FA346219E-KM-25-GEGEN-CBB6782D-006B-435C-8C08-9D4FA9C46F69-KM-107.93993372271524-GEGEN"/>
	<route edges="491ec-1 491ec-2 491ec-3" color="245,238,140" id="route_2FB6C8FD-3D36-491D-9187-B9878B8491EC-KM-45-IN-2FB6C8FD-3D36-491D-9187-B9878B8491EC-KM-152.73211692197054-IN"/>
	<route edges="491ec-3 491ec-4 0d95b-0 0d95b-1" color="135,26,140" id="route_2FB6C8FD-3D36-491D-9187-B9878B8491EC-KM-152.73211692197054-IN-8DA1CC57-6D59-4C48-B2BB-3D468440D95B-KM-45-IN"/>
	<route edges="491ec-3-re 491ec-2-re 491ec-1-re" color="202,253,206" id="route_2FB6C8FD-3D36-491D-9187-B9878B8491EC-KM-132.73211692197054-GEGEN-2FB6C8FD-3D36-491D-9187-B9878B8491EC-KM-25-GEGEN"/>
	<route edges="491ec-1-re 491ec-0-re 35772-0 097c2-0 097c2-1" color="100,180,58" id="route_2FB6C8FD-3D36-491D-9187-B9878B8491EC-KM-25-GEGEN-A8D9862B-F651-4EF1-936B-7FADAD2097C2-KM-45-IN"/>