<connections>
<!-- Point d1824 2643d297-5202-47c6-9544-be48356d1824 -->
<connection from="495a8-0" to="2c518-0"/>
<connection from="495a8-0" to="2c518-0-re"/>
<connection from="495a8-0-re" to="2c518-0"/>
<connection from="495a8-0-re" to="2c518-0-re"/>
<connection from="60cd5-0" to="2c518-0"/>
<connection from="60cd5-0" to="2c518-0-re"/>
<connection from="60cd5-0-re" to="2c518-0"/>
<connection from="60cd5-0-re" to="2c518-0-re"/>
<connection from="2c518-0" to="495a8-0"/>
<connection from="2c518-0" to="60cd5-0"/>
<connection from="2c518-0" to="495a8-0-re"/>
<connection from="2c518-0" to="60cd5-0-re"/>
<connection from="2c518-0-re" to="495a8-0"/>
<connection from="2c518-0-re" to="60cd5-0"/>
<connection from="2c518-0-re" to="495a8-0-re"/>
<connection from="2c518-0-re" to="60cd5-0-re"/>
<!-- Point 45a22 44ec89e2-d4c3-471c-b9ce-c0946e345a22 -->
<connection from="99fff-0" to="60cd5-2"/>
<connection from="99fff-0" to="60cd5-2-re"/>
<connection from="99fff-0-re" to="60cd5-2"/>
<connection from="99fff-0-re" to="60cd5-2-re"/>
<connection from="edaa3-0" to="60cd5-2"/>
<connection from="edaa3-0" to="60cd5-2-re"/>
<connection from="edaa3-0-re" to="60cd5-2"/>
<connection from="edaa3-0-re" to="60cd5-2-re"/>
<connection from="60cd5-2" to="99fff-0"/>
<connection from="60cd5-2" to="edaa3-0"/>
<connection from="60cd5-2" to="99fff-0-re"/>
<connection from="60cd5-2" to="edaa3-0-re"/>
<connection from="60cd5-2-re" to="99fff-0"/>
<connection from="60cd5-2-re" to="edaa3-0"/>
<connection from="60cd5-2-re" to="99fff-0-re"/>
<connection from="60cd5-2-re" to="edaa3-0-re"/>
<!-- Point d29b6 210efff8-df1d-407b-b4d3-c63d72ad29b6 -->
<connection from="1960e-0" to="58001-0"/>
<connection from="1960e-0" to="58001-0-re"/>
<connection from="1960e-0-re" to="58001-0"/>
<connection from="1960e-0-re" to="58001-0-re"/>
<connection from="99fff-2" to="58001-0"/>
<connection from="99fff-2" to="58001-0-re"/>
<connection from="99fff-2-re" to="58001-0"/>
<connection from="99fff-2-re" to="58001-0-re"/>
<connection from="58001-0" to="1960e-0"/>
<connection from="58001-0" to="99fff-2"/>
<connection from="58001-0" to="1960e-0-re"/>
<connection from="58001-0" to="99fff-2-re"/>
<connection from="58001-0-re" to="1960e-0"/>
<connection from="58001-0-re" to="99fff-2"/>
<connection from="58001-0-re" to="1960e-0-re"/>
<connection from="58001-0-re" to="99fff-2-re"/>
<!-- Point 37402 77896b23-1a0e-4f24-99ee-d9a357937402 -->
<connection from="58001-2" to="a2d3a-0"/>
<connection from="58001-2" to="a2d3a-0-re"/>
<connection from="58001-2-re" to="a2d3a-0"/>
<connection from="58001-2-re" to="a2d3a-0-re"/>
<connection from="899ec-0" to="a2d3a-0"/>
<connection from="899ec-0" to="a2d3a-0-re"/>
<connection from="899ec-0-re" to="a2d3a-0"/>
<connection from="899ec-0-re" to="a2d3a-0-re"/>
<connection from="a2d3a-0" to="58001-2"/>
<connection from="a2d3a-0" to="899ec-0"/>
<connection from="a2d3a-0" to="58001-2-re"/>
<connection from="a2d3a-0" to="899ec-0-re"/>
<connection from="a2d3a-0-re" to="58001-2"/>
<connection from="a2d3a-0-re" to="899ec-0"/>
<connection from="a2d3a-0-re" to="58001-2-re"/>
<connection from="a2d3a-0-re" to="899ec-0-re"/>
<!-- Point 22a94 36a8253c-edad-449e-a29f-91fd94922a94 -->
<connection from="42246-0" to="462c2-0"/>
<connection from="42246-0" to="462c2-0-re"/>
<connection from="42246-0-re" to="462c2-0"/>
<connection from="42246-0-re" to="462c2-0-re"/>
<connection from="b615e-0" to="462c2-0"/>
<connection from="b615e-0" to="462c2-0-re"/>
<connection from="b615e-0-re" to="462c2-0"/>
<connection from="b615e-0-re" to="462c2-0-re"/>
<connection from="462c2-0" to="42246-0"/>
<connection from="462c2-0" to="b615e-0"/>
<connection from="462c2-0" to="42246-0-re"/>
<connection from="462c2-0" to="b615e-0-re"/>
<connection from="462c2-0-re" to="42246-0"/>
<connection from="462c2-0-re" to="b615e-0"/>
<connection from="462c2-0-re" to="42246-0-re"/>
<connection from="462c2-0-re" to="b615e-0-re"/>
<!-- Point bd189 f59cff6f-1cd1-49b2-b8dc-2c70bbbbd189 -->
<connection from="8e56b-0" to="828b5-0"/>
<connection from="8e56b-0" to="828b5-0-re"/>
<connection from="8e56b-0-re" to="828b5-0"/>
<connection from="8e56b-0-re" to="828b5-0-re"/>
<connection from="b615e-2" to="828b5-0"/>
<connection from="b615e-2" to="828b5-0-re"/>
<connection from="b615e-2-re" to="828b5-0"/>
<connection from="b615e-2-re" to="828b5-0-re"/>
<connection from="828b5-0" to="8e56b-0"/>
<connection from="828b5-0" to="b615e-2"/>
<connection from="828b5-0" to="8e56b-0-re"/>
<connection from="828b5-0" to="b615e-2-re"/>
<connection from="828b5-0-re" to="8e56b-0"/>
<connection from="828b5-0-re" to="b615e-2"/>
<connection from="828b5-0-re" to="8e56b-0-re"/>
<connection from="828b5-0-re" to="b615e-2-re"/>
<!-- Point 2914e 2c070814-b915-4306-8788-29fa5742914e -->
<connection from="80aca-0" to="6bb18-0"/>
<connection from="80aca-0" to="6bb18-0-re"/>
<connection from="80aca-0-re" to="6bb18-0"/>
<connection from="80aca-0-re" to="6bb18-0-re"/>
<connection from="55723-0" to="6bb18-0"/>
<connection from="55723-0" to="6bb18-0-re"/>
<connection from="55723-0-re" to="6bb18-0"/>
<connection from="55723-0-re" to="6bb18-0-re"/>
<connection from="6bb18-0" to="80aca-0"/>
<connection from="6bb18-0" to="55723-0"/>
<connection from="6bb18-0" to="80aca-0-re"/>
<connection from="6bb18-0" to="55723-0-re"/>
<connection from="6bb18-0-re" to="80aca-0"/>
<connection from="6bb18-0-re" to="55723-0"/>
<connection from="6bb18-0-re" to="80aca-0-re"/>
<connection from="6bb18-0-re" to="55723-0-re"/>
<!-- Point 19fc1 bb355242-fabd-40db-bef8-03c9ab419fc1 -->
<connection from="4a8cb-0" to="44861-0"/>
<connection from="4a8cb-0" to="44861-0-re"/>
<connection from="4a8cb-0-re" to="44861-0"/>
<connection from="4a8cb-0-re" to="44861-0-re"/>
<connection from="70bdf-0" to="44861-0"/>
<connection from="70bdf-0" to="44861-0-re"/>
<connection from="70bdf-0-re" to="44861-0"/>
<connection from="70bdf-0-re" to="44861-0-re"/>
<connection from="44861-0" to="4a8cb-0"/>
<connection from="44861-0" to="70bdf-0"/>
<connection from="44861-0" to="4a8cb-0-re"/>
<connection from="44861-0" to="70bdf-0-re"/>
<connection from="44861-0-re" to="4a8cb-0"/>
<connection from="44861-0-re" to="70bdf-0"/>
<connection from="44861-0-re" to="4a8cb-0-re"/>
<connection from="44861-0-re" to="70bdf-0-re"/>
<!-- Point 102af 7a4be92c-c391-4747-8a76-a990264102af -->
<connection from="183b4-0" to="70bdf-0"/>
<connection from="183b4-0" to="70bdf-0-re"/>
<connection from="183b4-0-re" to="70bdf-0"/>
<connection from="183b4-0-re" to="70bdf-0-re"/>
<connection from="c9b5d-0" to="70bdf-0"/>
<connection from="c9b5d-0" to="70bdf-0-re"/>
<connection from="c9b5d-0-re" to="70bdf-0"/>
<connection from="c9b5d-0-re" to="70bdf-0-re"/>
<connection from="70bdf-0" to="183b4-0"/>
<connection from="70bdf-0" to="c9b5d-0"/>
<connection from="70bdf-0" to="183b4-0-re"/>
<connection from="70bdf-0" to="c9b5d-0-re"/>
<connection from="70bdf-0-re" to="183b4-0"/>
<connection from="70bdf-0-re" to="c9b5d-0"/>
<connection from="70bdf-0-re" to="183b4-0-re"/>
<connection from="70bdf-0-re" to="c9b5d-0-re"/>
<!-- Point 85f92 a81724b2-89e3-47af-98c7-2011aea85f92 -->
<connection from="17e13-0" to="24d02-0"/>
<connection from="17e13-0" to="24d02-0-re"/>
<connection from="17e13-0-re" to="24d02-0"/>
<connection from="17e13-0-re" to="24d02-0-re"/>
<connection from="c9b5d-2" to="24d02-0"/>
<connection from="c9b5d-2" to="24d02-0-re"/>
<connection from="c9b5d-2-re" to="24d02-0"/>
<connection from="c9b5d-2-re" to="24d02-0-re"/>
<connection from="24d02-0" to="17e13-0"/>
<connection from="24d02-0" to="c9b5d-2"/>
<connection from="24d02-0" to="17e13-0-re"/>
<connection from="24d02-0" to="c9b5d-2-re"/>
<connection from="24d02-0-re" to="17e13-0"/>
<connection from="24d02-0-re" to="c9b5d-2"/>
<connection from="24d02-0-re" to="17e13-0-re"/>
<connection from="24d02-0-re" to="c9b5d-2-re"/>
<!-- Point f3714 1a2ec1a5-d983-4039-bea6-b590677f3714 -->
<connection from="24d02-0" to="b6b2a-0"/>
<connection from="24d02-0" to="b6b2a-0-re"/>
<connection from="24d02-0-re" to="b6b2a-0"/>
<connection from="24d02-0-re" to="b6b2a-0-re"/>
<connection from="b15a6-0" to="b6b2a-0"/>
<connection from="b15a6-0" to="b6b2a-0-re"/>
<connection from="b15a6-0-re" to="b6b2a-0"/>
<connection from="b15a6-0-re" to="b6b2a-0-re"/>
<connection from="b6b2a-0" to="24d02-0"/>
<connection from="b6b2a-0" to="b15a6-0"/>
<connection from="b6b2a-0" to="24d02-0-re"/>
<connection from="b6b2a-0" to="b15a6-0-re"/>
<connection from="b6b2a-0-re" to="24d02-0"/>
<connection from="b6b2a-0-re" to="b15a6-0"/>
<connection from="b6b2a-0-re" to="24d02-0-re"/>
<connection from="b6b2a-0-re" to="b15a6-0-re"/>
<!-- Point 7b611 e0362b64-8bcb-4fb0-bebc-b0a08027b611 -->
<connection from="b6b2a-0" to="8e099-0"/>
<connection from="b6b2a-0" to="8e099-0-re"/>
<connection from="b6b2a-0-re" to="8e099-0"/>
<connection from="b6b2a-0-re" to="8e099-0-re"/>
<connection from="cc037-0" to="8e099-0"/>
<connection from="cc037-0" to="8e099-0-re"/>
<connection from="cc037-0-re" to="8e099-0"/>
<connection from="cc037-0-re" to="8e099-0-re"/>
<connection from="8e099-0" to="b6b2a-0"/>
<connection from="8e099-0" to="cc037-0"/>
<connection from="8e099-0" to="b6b2a-0-re"/>
<connection from="8e099-0" to="cc037-0-re"/>
<connection from="8e099-0-re" to="b6b2a-0"/>
<connection from="8e099-0-re" to="cc037-0"/>
<connection from="8e099-0-re" to="b6b2a-0-re"/>
<connection from="8e099-0-re" to="cc037-0-re"/>
<!-- Point 7bdd1 e14bc4fc-32af-4fa0-a4a2-b7932e67bdd1 -->
<connection from="b9cb8-0" to="8e099-2"/>
<connection from="b9cb8-0" to="8e099-2-re"/>
<connection from="b9cb8-0-re" to="8e099-2"/>
<connection from="b9cb8-0-re" to="8e099-2-re"/>
<connection from="cf35c-0" to="8e099-2"/>
<connection from="cf35c-0" to="8e099-2-re"/>
<connection from="cf35c-0-re" to="8e099-2"/>
<connection from="cf35c-0-re" to="8e099-2-re"/>
<connection from="8e099-2" to="b9cb8-0"/>
<connection from="8e099-2" to="cf35c-0"/>
<connection from="8e099-2" to="b9cb8-0-re"/>
<connection from="8e099-2" to="cf35c-0-re"/>
<connection from="8e099-2-re" to="b9cb8-0"/>
<connection from="8e099-2-re" to="cf35c-0"/>
<connection from="8e099-2-re" to="b9cb8-0-re"/>
<connection from="8e099-2-re" to="cf35c-0-re"/>
<!-- Point f343d 5ac5d4d2-5b09-431f-89ee-f1dd0d5f343d -->
<connection from="e0c5d-0" to="264ce-0"/>
<connection from="e0c5d-0" to="264ce-0-re"/>
<connection from="e0c5d-0-re" to="264ce-0"/>
<connection from="e0c5d-0-re" to="264ce-0-re"/>
<connection from="cf35c-2" to="264ce-0"/>
<connection from="cf35c-2" to="264ce-0-re"/>
<connection from="cf35c-2-re" to="264ce-0"/>
<connection from="cf35c-2-re" to="264ce-0-re"/>
<connection from="264ce-0" to="e0c5d-0"/>
<connection from="264ce-0" to="cf35c-2"/>
<connection from="264ce-0" to="e0c5d-0-re"/>
<connection from="264ce-0" to="cf35c-2-re"/>
<connection from="264ce-0-re" to="e0c5d-0"/>
<connection from="264ce-0-re" to="cf35c-2"/>
<connection from="264ce-0-re" to="e0c5d-0-re"/>
<connection from="264ce-0-re" to="cf35c-2-re"/>

<!-- Point 890b3 8c38bf38-c14f-4d94-9c21-d32584d890b3 -->
<connection from="38784-0" to="3d3ce-0"/>
<connection from="38784-0" to="3d3ce-0-re"/>
<connection from="38784-0-re" to="3d3ce-0"/>
<connection from="38784-0-re" to="3d3ce-0-re"/>
<connection from="cbcf5-0" to="3d3ce-0"/>
<connection from="cbcf5-0" to="3d3ce-0-re"/>
<connection from="cbcf5-0-re" to="3d3ce-0"/>
<connection from="cbcf5-0-re" to="3d3ce-0-re"/>
<connection from="3d3ce-0" to="38784-0"/>
<connection from="3d3ce-0" to="cbcf5-0"/>
<connection from="3d3ce-0" to="38784-0-re"/>
<connection from="3d3ce-0" to="cbcf5-0-re"/>
<connection from="3d3ce-0-re" to="38784-0"/>
<connection from="3d3ce-0-re" to="cbcf5-0"/>
<connection from="3d3ce-0-re" to="38784-0-re"/>
<connection from="3d3ce-0-re" to="cbcf5-0-re"/>
<!-- Point baf79 f8695c2f-d03a-438d-95fc-d43c2f7baf79 -->
<connection from="38784-2" to="c12d5-0"/>
<connection from="38784-2" to="c12d5-0-re"/>
<connection from="38784-2-re" to="c12d5-0"/>
<connection from="38784-2-re" to="c12d5-0-re"/>
<connection from="21ed9-0" to="c12d5-0"/>
<connection from="21ed9-0" to="c12d5-0-re"/>
<connection from="21ed9-0-re" to="c12d5-0"/>
<connection from="21ed9-0-re" to="c12d5-0-re"/>
<connection from="c12d5-0" to="38784-2"/>
<connection from="c12d5-0" to="21ed9-0"/>
<connection from="c12d5-0" to="38784-2-re"/>
<connection from="c12d5-0" to="21ed9-0-re"/>
<connection from="c12d5-0-re" to="38784-2"/>
<connection from="c12d5-0-re" to="21ed9-0"/>
<connection from="c12d5-0-re" to="38784-2-re"/>
<connection from="c12d5-0-re" to="21ed9-0-re"/>
<!-- Point becaf a8ed5301-66a1-40b6-a38a-25bd417becaf -->
<connection from="e1d67-0" to="c12d5-0"/>
<connection from="e1d67-0" to="c12d5-0-re"/>
<connection from="e1d67-0-re" to="c12d5-0"/>
<connection from="e1d67-0-re" to="c12d5-0-re"/>
<connection from="77eac-0" to="c12d5-0"/>
<connection from="77eac-0" to="c12d5-0-re"/>
<connection from="77eac-0-re" to="c12d5-0"/>
<connection from="77eac-0-re" to="c12d5-0-re"/>
<connection from="c12d5-0" to="e1d67-0"/>
<connection from="c12d5-0" to="77eac-0"/>
<connection from="c12d5-0" to="e1d67-0-re"/>
<connection from="c12d5-0" to="77eac-0-re"/>
<connection from="c12d5-0-re" to="e1d67-0"/>
<connection from="c12d5-0-re" to="77eac-0"/>
<connection from="c12d5-0-re" to="e1d67-0-re"/>
<connection from="c12d5-0-re" to="77eac-0-re"/>
<!-- Point 91a16 3465d138-ad74-4f9f-a3fc-5e2bc6491a16 -->
<connection from="8da80-0" to="9bb0d-0"/>
<connection from="8da80-0" to="9bb0d-0-re"/>
<connection from="8da80-0-re" to="9bb0d-0"/>
<connection from="8da80-0-re" to="9bb0d-0-re"/>
<connection from="f8c23-0" to="9bb0d-0"/>
<connection from="f8c23-0" to="9bb0d-0-re"/>
<connection from="f8c23-0-re" to="9bb0d-0"/>
<connection from="f8c23-0-re" to="9bb0d-0-re"/>
<connection from="9bb0d-0" to="8da80-0"/>
<connection from="9bb0d-0" to="f8c23-0"/>
<connection from="9bb0d-0" to="8da80-0-re"/>
<connection from="9bb0d-0" to="f8c23-0-re"/>
<connection from="9bb0d-0-re" to="8da80-0"/>
<connection from="9bb0d-0-re" to="f8c23-0"/>
<connection from="9bb0d-0-re" to="8da80-0-re"/>
<connection from="9bb0d-0-re" to="f8c23-0-re"/>
<!-- Point e2491 17999844-bec0-4481-84ea-2f0cab6e2491 -->
<connection from="67137-0" to="828b5-2"/>
<connection from="67137-0" to="828b5-2-re"/>
<connection from="67137-0-re" to="828b5-2"/>
<connection from="67137-0-re" to="828b5-2-re"/>
<connection from="8d185-0" to="828b5-2"/>
<connection from="8d185-0" to="828b5-2-re"/>
<connection from="8d185-0-re" to="828b5-2"/>
<connection from="8d185-0-re" to="828b5-2-re"/>
<connection from="828b5-2" to="67137-0"/>
<connection from="828b5-2" to="8d185-0"/>
<connection from="828b5-2" to="67137-0-re"/>
<connection from="828b5-2" to="8d185-0-re"/>
<connection from="828b5-2-re" to="67137-0"/>
<connection from="828b5-2-re" to="8d185-0"/>
<connection from="828b5-2-re" to="67137-0-re"/>
<connection from="828b5-2-re" to="8d185-0-re"/>
<!-- Point 59334 3d835803-f44e-45aa-9de4-25b20db59334 -->
<connection from="2f160-0" to="25c3b-0"/>
<connection from="2f160-0" to="25c3b-0-re"/>
<connection from="2f160-0-re" to="25c3b-0"/>
<connection from="2f160-0-re" to="25c3b-0-re"/>
<connection from="67137-2" to="25c3b-0"/>
<connection from="67137-2" to="25c3b-0-re"/>
<connection from="67137-2-re" to="25c3b-0"/>
<connection from="67137-2-re" to="25c3b-0-re"/>
<connection from="25c3b-0" to="2f160-0"/>
<connection from="25c3b-0" to="67137-2"/>
<connection from="25c3b-0" to="2f160-0-re"/>
<connection from="25c3b-0" to="67137-2-re"/>
<connection from="25c3b-0-re" to="2f160-0"/>
<connection from="25c3b-0-re" to="67137-2"/>
<connection from="25c3b-0-re" to="2f160-0-re"/>
<connection from="25c3b-0-re" to="67137-2-re"/>
<!-- Point 7b22b 99905306-4338-492d-85d5-02771fb7b22b -->
<connection from="6845c-0" to="25c3b-0"/>
<connection from="6845c-0" to="25c3b-0-re"/>
<connection from="6845c-0-re" to="25c3b-0"/>
<connection from="6845c-0-re" to="25c3b-0-re"/>
<connection from="dd0f7-0" to="25c3b-0"/>
<connection from="dd0f7-0" to="25c3b-0-re"/>
<connection from="dd0f7-0-re" to="25c3b-0"/>
<connection from="dd0f7-0-re" to="25c3b-0-re"/>
<connection from="25c3b-0" to="6845c-0"/>
<connection from="25c3b-0" to="dd0f7-0"/>
<connection from="25c3b-0" to="6845c-0-re"/>
<connection from="25c3b-0" to="dd0f7-0-re"/>
<connection from="25c3b-0-re" to="6845c-0"/>
<connection from="25c3b-0-re" to="dd0f7-0"/>
<connection from="25c3b-0-re" to="6845c-0-re"/>
<connection from="25c3b-0-re" to="dd0f7-0-re"/>
<!-- Point c1248 89e7e624-dfa9-4a97-ab95-64bc682c1248 -->
<connection from="dd0f7-2" to="6bb18-0"/>
<connection from="dd0f7-2" to="6bb18-0-re"/>
<connection from="dd0f7-2-re" to="6bb18-0"/>
<connection from="dd0f7-2-re" to="6bb18-0-re"/>
<connection from="d3e31-0" to="6bb18-0"/>
<connection from="d3e31-0" to="6bb18-0-re"/>
<connection from="d3e31-0-re" to="6bb18-0"/>
<connection from="d3e31-0-re" to="6bb18-0-re"/>
<connection from="6bb18-0" to="dd0f7-2"/>
<connection from="6bb18-0" to="d3e31-0"/>
<connection from="6bb18-0" to="dd0f7-2-re"/>
<connection from="6bb18-0" to="d3e31-0-re"/>
<connection from="6bb18-0-re" to="dd0f7-2"/>
<connection from="6bb18-0-re" to="d3e31-0"/>
<connection from="6bb18-0-re" to="dd0f7-2-re"/>
<connection from="6bb18-0-re" to="d3e31-0-re"/>
<!-- Point be72e d49278d5-80b5-45b4-b47a-1e1644dbe72e -->
<connection from="95179-0" to="17084-0"/>
<connection from="95179-0" to="17084-0-re"/>
<connection from="95179-0-re" to="17084-0"/>
<connection from="95179-0-re" to="17084-0-re"/>
<connection from="9bb0d-14" to="17084-0"/>
<connection from="9bb0d-14" to="17084-0-re"/>
<connection from="9bb0d-14-re" to="17084-0"/>
<connection from="9bb0d-14-re" to="17084-0-re"/>
<connection from="17084-0" to="95179-0"/>
<connection from="17084-0" to="9bb0d-14"/>
<connection from="17084-0" to="95179-0-re"/>
<connection from="17084-0" to="9bb0d-14-re"/>
<connection from="17084-0-re" to="95179-0"/>
<connection from="17084-0-re" to="9bb0d-14"/>
<connection from="17084-0-re" to="95179-0-re"/>
<connection from="17084-0-re" to="9bb0d-14-re"/>

<!-- Point a65a0 5d8d63f1-ffe7-40be-8f5f-ce80288a65a0 -->
<connection from="ab937-3" to="b031f-0"/>
<connection from="ab937-3" to="b031f-0-re"/>
<connection from="ab937-3-re" to="b031f-0"/>
<connection from="ab937-3-re" to="b031f-0-re"/>
<connection from="34ee7-0" to="b031f-0"/>
<connection from="34ee7-0" to="b031f-0-re"/>
<connection from="34ee7-0-re" to="b031f-0"/>
<connection from="34ee7-0-re" to="b031f-0-re"/>
<connection from="b031f-0" to="ab937-3"/>
<connection from="b031f-0" to="34ee7-0"/>
<connection from="b031f-0" to="ab937-3-re"/>
<connection from="b031f-0" to="34ee7-0-re"/>
<connection from="b031f-0-re" to="ab937-3"/>
<connection from="b031f-0-re" to="34ee7-0"/>
<connection from="b031f-0-re" to="ab937-3-re"/>
<connection from="b031f-0-re" to="34ee7-0-re"/>

<!-- Point f28b8 716fa07c-81d4-4130-9dcd-7dfa1aef28b8 -->
<connection from="b031f-2" to="f242b-0"/>
<connection from="b031f-2" to="f242b-0-re"/>
<connection from="b031f-2-re" to="f242b-0"/>
<connection from="b031f-2-re" to="f242b-0-re"/>
<connection from="8d8c5-0" to="f242b-0"/>
<connection from="8d8c5-0" to="f242b-0-re"/>
<connection from="8d8c5-0-re" to="f242b-0"/>
<connection from="8d8c5-0-re" to="f242b-0-re"/>
<connection from="f242b-0" to="b031f-2"/>
<connection from="f242b-0" to="8d8c5-0"/>
<connection from="f242b-0" to="b031f-2-re"/>
<connection from="f242b-0" to="8d8c5-0-re"/>
<connection from="f242b-0-re" to="b031f-2"/>
<connection from="f242b-0-re" to="8d8c5-0"/>
<connection from="f242b-0-re" to="b031f-2-re"/>
<connection from="f242b-0-re" to="8d8c5-0-re"/>
<!-- Point aff74 65cbf1f8-9256-43f2-b47a-715fbfbaff74 -->
<connection from="acdf4-0" to="6380e-0"/>
<connection from="acdf4-0" to="6380e-0-re"/>
<connection from="acdf4-0-re" to="6380e-0"/>
<connection from="acdf4-0-re" to="6380e-0-re"/>
<connection from="f242b-2" to="6380e-0"/>
<connection from="f242b-2" to="6380e-0-re"/>
<connection from="f242b-2-re" to="6380e-0"/>
<connection from="f242b-2-re" to="6380e-0-re"/>
<connection from="6380e-0" to="acdf4-0"/>
<connection from="6380e-0" to="f242b-2"/>
<connection from="6380e-0" to="acdf4-0-re"/>
<connection from="6380e-0" to="f242b-2-re"/>
<connection from="6380e-0-re" to="acdf4-0"/>
<connection from="6380e-0-re" to="f242b-2"/>
<connection from="6380e-0-re" to="acdf4-0-re"/>
<connection from="6380e-0-re" to="f242b-2-re"/>
<!-- Point 8ff04 9344d659-95d5-4097-af6a-e2e55ff8ff04 -->
<connection from="2348c-0" to="6380e-0"/>
<connection from="2348c-0" to="6380e-0-re"/>
<connection from="2348c-0-re" to="6380e-0"/>
<connection from="2348c-0-re" to="6380e-0-re"/>
<connection from="acaf1-0" to="6380e-0"/>
<connection from="acaf1-0" to="6380e-0-re"/>
<connection from="acaf1-0-re" to="6380e-0"/>
<connection from="acaf1-0-re" to="6380e-0-re"/>
<connection from="6380e-0" to="2348c-0"/>
<connection from="6380e-0" to="acaf1-0"/>
<connection from="6380e-0" to="2348c-0-re"/>
<connection from="6380e-0" to="acaf1-0-re"/>
<connection from="6380e-0-re" to="2348c-0"/>
<connection from="6380e-0-re" to="acaf1-0"/>
<connection from="6380e-0-re" to="2348c-0-re"/>
<connection from="6380e-0-re" to="acaf1-0-re"/>
<!-- Point be7c5 be49f126-25e5-492b-aa87-0184d3dbe7c5 -->
<connection from="ec577-0" to="a4b6f-0"/>
<connection from="ec577-0" to="a4b6f-0-re"/>
<connection from="ec577-0-re" to="a4b6f-0"/>
<connection from="ec577-0-re" to="a4b6f-0-re"/>
<connection from="2348c-2" to="a4b6f-0"/>
<connection from="2348c-2" to="a4b6f-0-re"/>
<connection from="2348c-2-re" to="a4b6f-0"/>
<connection from="2348c-2-re" to="a4b6f-0-re"/>
<connection from="a4b6f-0" to="ec577-0"/>
<connection from="a4b6f-0" to="2348c-2"/>
<connection from="a4b6f-0" to="ec577-0-re"/>
<connection from="a4b6f-0" to="2348c-2-re"/>
<connection from="a4b6f-0-re" to="ec577-0"/>
<connection from="a4b6f-0-re" to="2348c-2"/>
<connection from="a4b6f-0-re" to="ec577-0-re"/>
<connection from="a4b6f-0-re" to="2348c-2-re"/>
<!-- Point e1bdf 5aa6e341-18aa-4f4b-8b37-1da2541e1bdf -->
<connection from="f9f70-0" to="a4b6f-2"/>
<connection from="f9f70-0" to="a4b6f-2-re"/>
<connection from="f9f70-0-re" to="a4b6f-2"/>
<connection from="f9f70-0-re" to="a4b6f-2-re"/>
<connection from="e8bcd-0" to="a4b6f-2"/>
<connection from="e8bcd-0" to="a4b6f-2-re"/>
<connection from="e8bcd-0-re" to="a4b6f-2"/>
<connection from="e8bcd-0-re" to="a4b6f-2-re"/>
<connection from="a4b6f-2" to="f9f70-0"/>
<connection from="a4b6f-2" to="e8bcd-0"/>
<connection from="a4b6f-2" to="f9f70-0-re"/>
<connection from="a4b6f-2" to="e8bcd-0-re"/>
<connection from="a4b6f-2-re" to="f9f70-0"/>
<connection from="a4b6f-2-re" to="e8bcd-0"/>
<connection from="a4b6f-2-re" to="f9f70-0-re"/>
<connection from="a4b6f-2-re" to="e8bcd-0-re"/>
<!-- Point 892f7 8c52ed21-d270-4892-9ba2-0574986892f7 -->
<connection from="28d4f-0" to="c7dbf-0"/>
<connection from="28d4f-0" to="c7dbf-0-re"/>
<connection from="28d4f-0-re" to="c7dbf-0"/>
<connection from="28d4f-0-re" to="c7dbf-0-re"/>
<connection from="f9f70-2" to="c7dbf-0"/>
<connection from="f9f70-2" to="c7dbf-0-re"/>
<connection from="f9f70-2-re" to="c7dbf-0"/>
<connection from="f9f70-2-re" to="c7dbf-0-re"/>
<connection from="c7dbf-0" to="28d4f-0"/>
<connection from="c7dbf-0" to="f9f70-2"/>
<connection from="c7dbf-0" to="28d4f-0-re"/>
<connection from="c7dbf-0" to="f9f70-2-re"/>
<connection from="c7dbf-0-re" to="28d4f-0"/>
<connection from="c7dbf-0-re" to="f9f70-2"/>
<connection from="c7dbf-0-re" to="28d4f-0-re"/>
<connection from="c7dbf-0-re" to="f9f70-2-re"/>
<!-- Point 1d415 34fad993-8c1d-4cfd-87a9-61abec31d415 -->
<connection from="c7dbf-2" to="49269-0"/>
<connection from="c7dbf-2" to="49269-0-re"/>
<connection from="c7dbf-2-re" to="49269-0"/>
<connection from="c7dbf-2-re" to="49269-0-re"/>
<connection from="8c51b-0" to="49269-0"/>
<connection from="8c51b-0" to="49269-0-re"/>
<connection from="8c51b-0-re" to="49269-0"/>
<connection from="8c51b-0-re" to="49269-0-re"/>
<connection from="49269-0" to="c7dbf-2"/>
<connection from="49269-0" to="8c51b-0"/>
<connection from="49269-0" to="c7dbf-2-re"/>
<connection from="49269-0" to="8c51b-0-re"/>
<connection from="49269-0-re" to="c7dbf-2"/>
<connection from="49269-0-re" to="8c51b-0"/>
<connection from="49269-0-re" to="c7dbf-2-re"/>
<connection from="49269-0-re" to="8c51b-0-re"/>
<!-- Point 6b328 75bd6181-fb51-4fdf-9afe-f9493096b328 -->
<connection from="3bfb2-0" to="d9005-0"/>
<connection from="3bfb2-0" to="d9005-0-re"/>
<connection from="3bfb2-0-re" to="d9005-0"/>
<connection from="3bfb2-0-re" to="d9005-0-re"/>
<connection from="2b324-0" to="d9005-0"/>
<connection from="2b324-0" to="d9005-0-re"/>
<connection from="2b324-0-re" to="d9005-0"/>
<connection from="2b324-0-re" to="d9005-0-re"/>
<connection from="d9005-0" to="3bfb2-0"/>
<connection from="d9005-0" to="2b324-0"/>
<connection from="d9005-0" to="3bfb2-0-re"/>
<connection from="d9005-0" to="2b324-0-re"/>
<connection from="d9005-0-re" to="3bfb2-0"/>
<connection from="d9005-0-re" to="2b324-0"/>
<connection from="d9005-0-re" to="3bfb2-0-re"/>
<connection from="d9005-0-re" to="2b324-0-re"/>
<!-- Point 5c9d2 8d04b56e-5354-4a53-8589-97f3ea15c9d2 -->
<connection from="3bfb2-2" to="99045-0"/>
<connection from="3bfb2-2" to="99045-0-re"/>
<connection from="3bfb2-2-re" to="99045-0"/>
<connection from="3bfb2-2-re" to="99045-0-re"/>
<connection from="0a292-0" to="99045-0"/>
<connection from="0a292-0" to="99045-0-re"/>
<connection from="0a292-0-re" to="99045-0"/>
<connection from="0a292-0-re" to="99045-0-re"/>
<connection from="99045-0" to="3bfb2-2"/>
<connection from="99045-0" to="0a292-0"/>
<connection from="99045-0" to="3bfb2-2-re"/>
<connection from="99045-0" to="0a292-0-re"/>
<connection from="99045-0-re" to="3bfb2-2"/>
<connection from="99045-0-re" to="0a292-0"/>
<connection from="99045-0-re" to="3bfb2-2-re"/>
<connection from="99045-0-re" to="0a292-0-re"/>
<!-- Point 27a9d 00087a0c-6865-4555-b58b-a71836227a9d -->
<connection from="6845c-2" to="99045-0"/>
<connection from="6845c-2" to="99045-0-re"/>
<connection from="6845c-2-re" to="99045-0"/>
<connection from="6845c-2-re" to="99045-0-re"/>
<connection from="bc557-0" to="99045-0"/>
<connection from="bc557-0" to="99045-0-re"/>
<connection from="bc557-0-re" to="99045-0"/>
<connection from="bc557-0-re" to="99045-0-re"/>
<connection from="99045-0" to="6845c-2"/>
<connection from="99045-0" to="bc557-0"/>
<connection from="99045-0" to="6845c-2-re"/>
<connection from="99045-0" to="bc557-0-re"/>
<connection from="99045-0-re" to="6845c-2"/>
<connection from="99045-0-re" to="bc557-0"/>
<connection from="99045-0-re" to="6845c-2-re"/>
<connection from="99045-0-re" to="bc557-0-re"/>
<!-- Point 59e73 a1cd9b0a-c01f-4b2d-a0c7-549384659e73 -->
<connection from="a6abc-0" to="bc557-0"/>
<connection from="a6abc-0" to="bc557-0-re"/>
<connection from="a6abc-0-re" to="bc557-0"/>
<connection from="a6abc-0-re" to="bc557-0-re"/>
<connection from="6bcbe-0" to="bc557-0"/>
<connection from="6bcbe-0" to="bc557-0-re"/>
<connection from="6bcbe-0-re" to="bc557-0"/>
<connection from="6bcbe-0-re" to="bc557-0-re"/>
<connection from="bc557-0" to="a6abc-0"/>
<connection from="bc557-0" to="6bcbe-0"/>
<connection from="bc557-0" to="a6abc-0-re"/>
<connection from="bc557-0" to="6bcbe-0-re"/>
<connection from="bc557-0-re" to="a6abc-0"/>
<connection from="bc557-0-re" to="6bcbe-0"/>
<connection from="bc557-0-re" to="a6abc-0-re"/>
<connection from="bc557-0-re" to="6bcbe-0-re"/>
<!-- Point ff6a0 b2f312bc-8e0d-4f3a-b247-da39037ff6a0 -->
<connection from="ec577-2" to="16df4-0"/>
<connection from="ec577-2" to="16df4-0-re"/>
<connection from="ec577-2-re" to="16df4-0"/>
<connection from="ec577-2-re" to="16df4-0-re"/>
<connection from="9575a-0" to="16df4-0"/>
<connection from="9575a-0" to="16df4-0-re"/>
<connection from="9575a-0-re" to="16df4-0"/>
<connection from="9575a-0-re" to="16df4-0-re"/>
<connection from="16df4-0" to="ec577-2"/>
<connection from="16df4-0" to="9575a-0"/>
<connection from="16df4-0" to="ec577-2-re"/>
<connection from="16df4-0" to="9575a-0-re"/>
<connection from="16df4-0-re" to="ec577-2"/>
<connection from="16df4-0-re" to="9575a-0"/>
<connection from="16df4-0-re" to="ec577-2-re"/>
<connection from="16df4-0-re" to="9575a-0-re"/>
<!-- Point 53bb9 8f380be0-e723-4c31-8590-f71517a53bb9 -->
<connection from="1ae3b-0" to="16df4-0"/>
<connection from="1ae3b-0" to="16df4-0-re"/>
<connection from="1ae3b-0-re" to="16df4-0"/>
<connection from="1ae3b-0-re" to="16df4-0-re"/>
<connection from="acaf1-2" to="16df4-0"/>
<connection from="acaf1-2" to="16df4-0-re"/>
<connection from="acaf1-2-re" to="16df4-0"/>
<connection from="acaf1-2-re" to="16df4-0-re"/>
<connection from="16df4-0" to="1ae3b-0"/>
<connection from="16df4-0" to="acaf1-2"/>
<connection from="16df4-0" to="1ae3b-0-re"/>
<connection from="16df4-0" to="acaf1-2-re"/>
<connection from="16df4-0-re" to="1ae3b-0"/>
<connection from="16df4-0-re" to="acaf1-2"/>
<connection from="16df4-0-re" to="1ae3b-0-re"/>
<connection from="16df4-0-re" to="acaf1-2-re"/>
<!-- Point 34cd3 48e25721-1af6-4042-91ec-ec1658b34cd3 -->
<connection from="d610a-0" to="39324-0"/>
<connection from="d610a-0" to="39324-0-re"/>
<connection from="d610a-0-re" to="39324-0"/>
<connection from="d610a-0-re" to="39324-0-re"/>
<connection from="927e4-0" to="39324-0"/>
<connection from="927e4-0" to="39324-0-re"/>
<connection from="927e4-0-re" to="39324-0"/>
<connection from="927e4-0-re" to="39324-0-re"/>
<connection from="39324-0" to="d610a-0"/>
<connection from="39324-0" to="927e4-0"/>
<connection from="39324-0" to="d610a-0-re"/>
<connection from="39324-0" to="927e4-0-re"/>
<connection from="39324-0-re" to="d610a-0"/>
<connection from="39324-0-re" to="927e4-0"/>
<connection from="39324-0-re" to="d610a-0-re"/>
<connection from="39324-0-re" to="927e4-0-re"/>
<!-- Point a6212 55bbf422-a62a-4783-b46a-fb6902ba6212 -->
<connection from="d610a-2" to="6abfd-0"/>
<connection from="d610a-2" to="6abfd-0-re"/>
<connection from="d610a-2-re" to="6abfd-0"/>
<connection from="d610a-2-re" to="6abfd-0-re"/>
<connection from="38dc2-0" to="6abfd-0"/>
<connection from="38dc2-0" to="6abfd-0-re"/>
<connection from="38dc2-0-re" to="6abfd-0"/>