<edges>
<!-- Track a800854c-b10e-469a-9cf5-80d34ab274dc -->
<edge id="274dc-0" from="37c79" to="a800854c-b10e-469a-9cf5-80d34ab274dc-km-25-gegen" shape="-2502198.1259712474,3467432.6135298666 -2502222.669270449,3467437.370258187" priority="-1" numLanes="1" speed="110.0" allow="rail rail_electric" spreadType="center" />
<edge id="274dc-0-re" from="a800854c-b10e-469a-9cf5-80d34ab274dc-km-25-gegen" to="37c79" shape="-2502222.669270449,3467437.370258187 -2502198.1259712474,3467432.6135298666" priority="-1" numLanes="1" speed="110.0" allow="rail rail_electric" spreadType="center" />
<!-- Track a800854c-b10e-469a-9cf5-80d34ab274dc -->
<edge id="274dc-1" from="a800854c-b10e-469a-9cf5-80d34ab274dc-km-25-gegen" to="a800854c-b10e-469a-9cf5-80d34ab274dc-km-321.5762856547864-in" shape="-2502222.669270449,3467437.370258187 -2502326.879854113,3467457.567275325 -2502513.502873321,3467495.4370743074" priority="-1" numLanes="1" speed="110.0" allow="rail rail_electric" spreadType="center" />
<edge id="274dc-1-re" from="a800854c-b10e-469a-9cf5-80d34ab274dc-km-321.5762856547864-in" to="a800854c-b10e-469a-9cf5-80d34ab274dc-km-25-gegen" shape="-2502513.502873321,3467495.4370743074 -2502326.879854113,3467457.567275325 -2502222.669270449,3467437.370258187" priority="-1" numLanes="1" speed="110.0" allow="rail rail_electric" spreadType="center" />
<!-- Track a800854c-b10e-469a-9cf5-80d34ab274dc -->
<edge id="274dc-2" from="a800854c-b10e-469a-9cf5-80d34ab274dc-km-321.5762856547864-in" to="45d6e" shape="-2502513.502873321,3467495.4370743074 -2502538.003529084,3467500.4087809734" priority="-1" numLanes="1" speed="110.0" allow="rail rail_electric" spreadType="center" />
<edge id="274dc-2-re" from="45d6e" to="a800854c-b10e-469a-9cf5-80d34ab274dc-km-321.5762856547864-in" shape="-2502538.003529084,3467500.4087809734 -2502513.502873321,3467495.4370743074" priority="-1" numLanes="1" speed="110.0" allow="rail rail_electric" spreadType="center" />
<!-- Track 600f7e20-6ef8-4334-83c8-b974ca3f0642 -->
<edge id="f0642-0" from="37c79" to="600f7e20-6ef8-4334-83c8-b974ca3f0642-km-25-gegen" shape="-2502198.1259712474,3467432.6135298666 -2502173.6116686147,3467427.7095553116" priority="-1" numLanes="1" speed="110.0" allow="rail rail_electric" spreadType="center" />
<edge id="f0642-0-re" from="600f7e20-6ef8-4334-83c8-b974ca3f0642-km-25-gegen" to="37c79" shape="-2502173.6116686147,3467427.7095553116 -2502198.1259712474,3467432.6135298666" priority="-1" numLanes="1" speed="110.0" allow="rail rail_electric" spreadType="center" />
<!-- Track 600f7e20-6ef8-4334-83c8-b974ca3f0642 -->
<edge id="f0642-1" from="600f7e20-6ef8-4334-83c8-b974ca3f0642-km-25-gegen" to="600f7e20-6ef8-4334-83c8-b974ca3f0642-km-165.5616561823125-in" shape="-2502173.6116686147,3467427.7095553116 -2502035.7808294874,3467400.137123897" priority="-1" numLanes="1" speed="110.0" allow="rail rail_electric" spreadType="center" />
<edge id="f0642-1-re" from="600f7e20-6ef8-4334-83c8-b974ca3f0642-km-165.5616561823125-in" to="600f7e20-6ef8-4334-83c8-b974ca3f0642-km-25-gegen" shape="-2502035.7808294874,3467400.137123897 -2502173.6116686147,3467427.7095553116" priority="-1" numLanes="1" speed="110.0" allow="rail rail_electric" spreadType="center" />
<!-- Track 600f7e20-6ef8-4334-83c8-b974ca3f0642 -->
<edge id="f0642-2" from="600f7e20-6ef8-4334-83c8-b974ca3f0642-km-165.5616561823125-in" to="25058" shape="-2502035.7808294874,3467400.137123897 -2502011.2665268546,3467395.2331493422" priority="-1" numLanes="1" speed="110.0" allow="rail rail_electric" spreadType="center" />
<edge id="f0642-2-re" from="25058" to="600f7e20-6ef8-4334-83c8-b974ca3f0642-km-165.5616561823125-in" shape="-2502011.2665268546,3467395.2331493422 -2502035.7808294874,3467400.137123897" priority="-1" numLanes="1" speed="110.0" allow="rail rail_electric" spreadType="center" />
<!-- Track 78e7b4cc-db33-481d-bb92-6291694c21c1 -->
<edge id="c21c1-0" from="37c79" to="78e7b4cc-db33-481d-bb92-6291694c21c1-km-25-gegen" shape="-2502198.1259712474,3467432.6135298666 -2502173.3051357637,3467429.6258675884" priority="-1" numLanes="1" speed="110.0" allow="rail rail_electric" spreadType="center" />
<edge id="c21c1-0-re" from="78e7b4cc-db33-481d-bb92-6291694c21c1-km-25-gegen" to="37c79" shape="-2502173.3051357637,3467429.6258675884 -2502198.1259712474,3467432.6135298666" priority="-1" numLanes="1" speed="110.0" allow="rail rail_electric" spreadType="center" />
<!-- Track 78e7b4cc-db33-481d-bb92-6291694c21c1 -->
<edge id="c21c1-1" from="78e7b4cc-db33-481d-bb92-6291694c21c1-km-25-gegen" to="78e7b4cc-db33-481d-bb92-6291694c21c1-km-852.2588211144425-in" shape="-2502173.3051357637,3467429.6258675884 -2501986.5440240223,3467407.1455957647 -2501941.394594235,3467406.669230707 -2501900.14020605,3467408.084832847 -2501830.2628213717,3467412.3299855366 -2501757.781161777,3467419.529616246 -2501699.9119592384,3467418.698338378 -2501637.2374989176,3467415.157012349 -2501580.245985288,3467407.526348047 -2501352.99611748,3467362.206877052" priority="-1" numLanes="1" speed="110.0" allow="rail rail_electric" spreadType="center" />
<edge id="c21c1-1-re" from="78e7b4cc-db33-481d-bb92-6291694c21c1-km-852.2588211144425-in" to="78e7b4cc-db33-481d-bb92-6291694c21c1-km-25-gegen" shape="-2501352.99611748,3467362.206877052 -2501580.245985288,3467407.526348047 -2501637.2374989176,3467415.157012349 -2501699.9119592384,3467418.698338378 -2501757.781161777,3467419.529616246 -2501830.2628213717,3467412.3299855366 -2501900.14020605,3467408.084832847 -2501941.394594235,3467406.669230707 -2501986.5440240223,3467407.1455957647 -2502173.3051357637,3467429.6258675884" priority="-1" numLanes="1" speed="110.0" allow="rail rail_electric" spreadType="center" />
<!-- Track 78e7b4cc-db33-481d-bb92-6291694c21c1 -->
<edge id="c21c1-2" from="78e7b4cc-db33-481d-bb92-6291694c21c1-km-852.2588211144425-in" to="85048" shape="-2501352.99611748,3467362.206877052 -2501328.4788967334,3467357.3175123837" priority="-1" numLanes="1" speed="110.0" allow="rail rail_electric" spreadType="center" />
<edge id="c21c1-2-re" from="85048" to="78e7b4cc-db33-481d-bb92-6291694c21c1-km-852.2588211144425-in" shape="-2501328.4788967334,3467357.3175123837 -2501352.99611748,3467362.206877052" priority="-1" numLanes="1" speed="110.0" allow="rail rail_electric" spreadType="center" />
<!-- Track d220b1de-3536-49ae-acc4-43cbc952ddea -->
<edge id="2ddea-0" from="25058" to="d220b1de-3536-49ae-acc4-43cbc952ddea-km-25-gegen" shape="-2502011.2665268546,3467395.2331493422 -2501986.4846162554,3467391.938167242" priority="-1" numLanes="1" speed="110.0" allow="rail rail_electric" spreadType="center" />
<edge id="2ddea-0-re" from="d220b1de-3536-49ae-acc4-43cbc952ddea-km-25-gegen" to="25058" shape="-2501986.4846162554,3467391.938167242 -2502011.2665268546,3467395.2331493422" priority="-1" numLanes="1" speed="110.0" allow="rail rail_electric" spreadType="center" />
<!-- Track d220b1de-3536-49ae-acc4-43cbc952ddea -->
<edge id="2ddea-1" from="d220b1de-3536-49ae-acc4-43cbc952ddea-km-25-gegen" to="d220b1de-3536-49ae-acc4-43cbc952ddea-km-788.1457216628645-in" shape="-2501986.4846162554,3467391.938167242 -2501902.187891895,3467380.730145294 -2501866.152929621,3467378.21362713 -2501673.0765554016,3467367.3538590707 -2501592.416926997,3467359.140942909 -2501551.447303158,3467353.074182581 -2501505.253120913,3467345.780980693 -2501231.263445984,3467291.352738634" priority="-1" numLanes="1" speed="110.0" allow="rail rail_electric" spreadType="center" />
<edge id="2ddea-1-re" from="d220b1de-3536-49ae-acc4-43cbc952ddea-km-788.1457216628645-in" to="d220b1de-3536-49ae-acc4-43cbc952ddea-km-25-gegen" shape="-2501231.263445984,3467291.352738634 -2501505.253120913,3467345.780980693 -2501551.447303158,3467353.074182581 -2501592.416926997,3467359.140942909 -2501673.0765554016,3467367.3538590707 -2501866.152929621,3467378.21362713 -2501902.187891895,3467380.730145294 -2501986.4846162554,3467391.938167242" priority="-1" numLanes="1" speed="110.0" allow="rail rail_electric" spreadType="center" />
<!-- Track d220b1de-3536-49ae-acc4-43cbc952ddea -->
<edge id="2ddea-2" from="d220b1de-3536-49ae-acc4-43cbc952ddea-km-788.1457216628645-in" to="016be" shape="-2501231.263445984,3467291.352738634 -2501206.7425870663,3467286.4816527255" priority="-1" numLanes="1" speed="110.0" allow="rail rail_electric" spreadType="center" />
<edge id="2ddea-2-re" from="016be" to="d220b1de-3536-49ae-acc4-43cbc952ddea-km-788.1457216628645-in" shape="-2501206.7425870663,3467286.4816527255 -2501231.263445984,3467291.352738634" priority="-1" numLanes="1" speed="110.0" allow="rail rail_electric" spreadType="center" />
<!-- Track 6e315a76-b283-4026-a391-c8725c06df86 -->
<edge id="6df86-0" from="25058" to="6e315a76-b283-4026-a391-c8725c06df86-km-25-gegen" shape="-2502011.2665268546,3467395.2331493422 -2501986.867727038,3467389.7835101327" priority="-1" numLanes="1" speed="110.0" allow="rail rail_electric" spreadType="center" />
<edge id="6df86-0-re" from="6e315a76-b283-4026-a391-c8725c06df86-km-25-gegen" to="25058" shape="-2501986.867727038,3467389.7835101327 -2502011.2665268546,3467395.2331493422" priority="-1" numLanes="1" speed="110.0" allow="rail rail_electric" spreadType="center" />
<!-- Track 6e315a76-b283-4026-a391-c8725c06df86 -->
<edge id="6df86-1" from="6e315a76-b283-4026-a391-c8725c06df86-km-25-gegen" to="6e315a76-b283-4026-a391-c8725c06df86-km-238.52550007798908-in" shape="-2501986.867727038,3467389.7835101327 -2501807.904326056,3467349.8108076043 -2501778.5806097006,3467342.790603453" priority="-1" numLanes="1" speed="110.0" allow="rail rail_electric" spreadType="center" />
<edge id="6df86-1-re" from="6e315a76-b283-4026-a391-c8725c06df86-km-238.52550007798908-in" to="6e315a76-b283-4026-a391-c8725c06df86-km-25-gegen" shape="-2501778.5806097006,3467342.790603453 -2501807.904326056,3467349.8108076043 -2501986.867727038,3467389.7835101327" priority="-1" numLanes="1" speed="110.0" allow="rail rail_electric" spreadType="center" />
<!-- Track 6e315a76-b283-4026-a391-c8725c06df86 -->
<edge id="6df86-2" from="6e315a76-b283-4026-a391-c8725c06df86-km-238.52550007798908-in" to="53136" shape="-2501778.5806097006,3467342.790603453 -2501754.2676406577,3467336.9699903987" priority="-1" numLanes="1" speed="110.0" allow="rail rail_electric" spreadType="center" />
<edge id="6df86-2-re" from="53136" to="6e315a76-b283-4026-a391-c8725c06df86-km-238.52550007798908-in" shape="-2501754.2676406577,3467336.9699903987 -2501778.5806097006,3467342.790603453" priority="-1" numLanes="1" speed="110.0" allow="rail rail_electric" spreadType="center" />
<!-- Track db39ae30-c8d3-4291-bdd7-989bb84959a4 -->
<edge id="959a4-0" from="016be" to="db39ae30-c8d3-4291-bdd7-989bb84959a4-km-25-gegen" shape="-2501206.7425870663,3467286.4816527255 -2501182.2386736786,3467281.5260267616" priority="-1" numLanes="1" speed="110.0" allow="rail rail_electric" spreadType="center" />
<edge id="959a4-0-re" from="db39ae30-c8d3-4291-bdd7-989bb84959a4-km-25-gegen" to="016be" shape="-2501182.2386736786,3467281.5260267616 -2501206.7425870663,3467286.4816527255" priority="-1" numLanes="1" speed="110.0" allow="rail rail_electric" spreadType="center" />
<!-- Track db39ae30-c8d3-4291-bdd7-989bb84959a4 -->
<edge id="959a4-1" from="db39ae30-c8d3-4291-bdd7-989bb84959a4-km-25-gegen" to="db39ae30-c8d3-4291-bdd7-989bb84959a4-km-169.7673894741766-in" shape="-2501182.2386736786,3467281.5260267616 -2501040.343970758,3467252.8295054003" priority="-1" numLanes="1" speed="110.0" allow="rail rail_electric" spreadType="center" />
<edge id="959a4-1-re" from="db39ae30-c8d3-4291-bdd7-989bb84959a4-km-169.7673894741766-in" to="db39ae30-c8d3-4291-bdd7-989bb84959a4-km-25-gegen" shape="-2501040.343970758,3467252.8295054003 -2501182.2386736786,3467281.5260267616" priority="-1" numLanes="1" speed="110.0" allow="rail rail_electric" spreadType="center" />
<!-- Track db39ae30-c8d3-4291-bdd7-989bb84959a4 -->
<edge id="959a4-2" from="db39ae30-c8d3-4291-bdd7-989bb84959a4-km-169.7673894741766-in" to="02be8" shape="-2501040.343970758,3467252.8295054003 -2501015.8400573703,3467247.8738794364" priority="-1" numLanes="1" speed="110.0" allow="rail rail_electric" spreadType="center" />
<edge id="959a4-2-re" from="02be8" to="db39ae30-c8d3-4291-bdd7-989bb84959a4-km-169.7673894741766-in" shape="-2501015.8400573703,3467247.8738794364 -2501040.343970758,3467252.8295054003" priority="-1" numLanes="1" speed="110.0" allow="rail rail_electric" spreadType="center" />
<!-- Track b6976fbc-76f4-4277-9f3e-b2e596ac4427 -->
<edge id="c4427-0" from="016be" to="b6976fbc-76f4-4277-9f3e-b2e596ac4427-km-25-gegen" shape="-2501206.7425870663,3467286.4816527255 -2501231.489801964,3467290.0278274002" priority="-1" numLanes="1" speed="110.0" allow="rail rail_electric" spreadType="center" />
<edge id="c4427-0-re" from="b6976fbc-76f4-4277-9f3e-b2e596ac4427-km-25-gegen" to="016be" shape="-2501231.489801964,3467290.0278274002 -2501206.7425870663,3467286.4816527255" priority="-1" numLanes="1" speed="110.0" allow="rail rail_electric" spreadType="center" />
<!-- Track b6976fbc-76f4-4277-9f3e-b2e596ac4427 -->
<edge id="c4427-1" from="b6976fbc-76f4-4277-9f3e-b2e596ac4427-km-25-gegen" to="9b225" shape="-2501231.489801964,3467290.0278274002 -2501292.2642674847,3467298.736559732 -2501351.8286421327,3467306.9248945564 -2501777.896236745,3467364.0153826177" priority="-1" numLanes="1" speed="110.0" allow="rail rail_electric" spreadType="center" />
<edge id="c4427-1-re" from="9b225" to="b6976fbc-76f4-4277-9f3e-b2e596ac4427-km-25-gegen" shape="-2501777.896236745,3467364.0153826177 -2501351.8286421327,3467306.9248945564 -2501292.2642674847,3467298.736559732 -2501231.489801964,3467290.0278274002" priority="-1" numLanes="1" speed="110.0" allow="rail rail_electric" spreadType="center" />
<!-- Track fec55053-6e53-45c3-b198-0d4eda5d1a04 -->
<edge id="d1a04-0" from="02be8" to="fec55053-6e53-45c3-b198-0d4eda5d1a04-km-25-gegen" shape="-2501015.8400573703,3467247.8738794364 -2500991.319573685,3467243.0009050015" priority="-1" numLanes="1" speed="110.0" allow="rail rail_electric" spreadType="center" />
<edge id="d1a04-0-re" from="fec55053-6e53-45c3-b198-0d4eda5d1a04-km-25-gegen" to="02be8" shape="-2500991.319573685,3467243.0009050015 -2501015.8400573703,3467247.8738794364" priority="-1" numLanes="1" speed="110.0" allow="rail rail_electric" spreadType="center" />
<!-- Track fec55053-6e53-45c3-b198-0d4eda5d1a04 -->
<edge id="d1a04-1" from="fec55053-6e53-45c3-b198-0d4eda5d1a04-km-25-gegen" to="fec55053-6e53-45c3-b198-0d4eda5d1a04-km-684.7733628877847-in" shape="-2500991.319573685,3467243.0009050015 -2500344.2010944607,3467114.398555789" priority="-1" numLanes="1" speed="110.0" allow="rail rail_electric" spreadType="center" />
<edge id="d1a04-1-re" from="fec55053-6e53-45c3-b198-0d4eda5d1a04-km-684.7733628877847-in" to="fec55053-6e53-45c3-b198-0d4eda5d1a04-km-25-gegen" shape="-2500344.2010944607,3467114.398555789 -2500991.319573685,3467243.0009050015" priority="-1" numLanes="1" speed="110.0" allow="rail rail_electric" spreadType="center" />
<!-- Track fec55053-6e53-45c3-b198-0d4eda5d1a04 -->
<edge id="d1a04-2" from="fec55053-6e53-45c3-b198-0d4eda5d1a04-km-684.7733628877847-in" to="c29fe" shape="-2500344.2010944607,3467114.398555789 -2500319.680610776,3467109.5255813543" priority="-1" numLanes="1" speed="110.0" allow="rail rail_electric" spreadType="center" />
<edge id="d1a04-2-re" from="c29fe" to="fec55053-6e53-45c3-b198-0d4eda5d1a04-km-684.7733628877847-in" shape="-2500319.680610776,3467109.5255813543 -2500344.2010944607,3467114.398555789" priority="-1" numLanes="1" speed="110.0" allow="rail rail_electric" spreadType="center" />
<!-- Track 55aca8d0-b810-4473-a460-4f3a963b8eb1 -->
<edge id="b8eb1-0" from="02be8" to="55aca8d0-b810-4473-a460-4f3a963b8eb1-km-25-gegen" shape="-2501015.8400573703,3467247.8738794364 -2501040.129426962,3467253.792200551" priority="-1" numLanes="1" speed="110.0" allow="rail rail_electric" spreadType="center" />
<edge id="b8eb1-0-re" from="55aca8d0-b810-4473-a460-4f3a963b8eb1-km-25-gegen" to="02be8" shape="-2501040.129426962,3467253.792200551 -2501015.8400573703,3467247.8738794364" priority="-1" numLanes="1" speed="110.0" allow="rail rail_electric" spreadType="center" />
<!-- Track 55aca8d0-b810-4473-a460-4f3a963b8eb1 -->
<edge id="b8eb1-1" from="55aca8d0-b810-4473-a460-4f3a963b8eb1-km-25-gegen" to="46294" shape="-2501040.129426962,3467253.792200551 -2501115.083613891,3467272.0554554053 -2501236.739845654,3467305.6705410834 -2501274.012567208,3467312.6615284346 -2501684.7521156543,3467394.7215760183" priority="-1" numLanes="1" speed="110.0" allow="rail rail_electric" spreadType="center" />
<edge id="b8eb1-1-re" from="46294" to="55aca8d0-b810-4473-a460-4f3a963b8eb1-km-25-gegen" shape="-2501684.7521156543,3467394.7215760183 -2501274.012567208,3467312.6615284346 -2501236.739845654,3467305.6705410834 -2501115.083613891,3467272.0554554053 -2501040.129426962,3467253.792200551" priority="-1" numLanes="1" speed="110.0" allow="rail rail_electric" spreadType="center" />
<!-- Track f2721e2e-db32-4c0b-bb48-a643b61d2b86 -->
<edge id="d2b86-0" from="47614" to="f2721e2e-db32-4c0b-bb48-a643b61d2b86-km-25-gegen" shape="-2498540.5476426897,3466763.493575601 -2498516.147492651,3466758.0499850498" priority="-1" numLanes="1" speed="110.0" allow="rail rail_electric" spreadType="center" />
<edge id="d2b86-0-re" from="f2721e2e-db32-4c0b-bb48-a643b61d2b86-km-25-gegen" to="47614" shape="-2498516.147492651,3466758.0499850498 -2498540.5476426897,3466763.493575601" priority="-1" numLanes="1" speed="110.0" allow="rail rail_electric" spreadType="center" />
<!-- Track f2721e2e-db32-4c0b-bb48-a643b61d2b86 -->
<edge id="d2b86-1" from="f2721e2e-db32-4c0b-bb48-a643b61d2b86-km-25-gegen" to="f2721e2e-db32-4c0b-bb48-a643b61d2b86-km-254.45431792963808-in" shape="-2498516.147492651,3466758.0499850498 -2498402.661352981,3466732.7316129655 -2498329.9658797192,3466713.124746185 -2498293.0708839176,3466704.520165761" priority="-1" numLanes="1" speed="110.0" allow="rail rail_electric" spreadType="center" />
<edge id="d2b86-1-re" from="f2721e2e-db32-4c0b-bb48-a643b61d2b86-km-254.45431792963808-in" to="f2721e2e-db32-4c0b-bb48-a643b61d2b86-km-25-gegen" shape="-2498293.0708839176,3466704.520165761 -2498329.9658797192,3466713.124746185 -2498402.661352981,3466732.7316129655 -2498516.147492651,3466758.0499850498" priority="-1" numLanes="1" speed="110.0" allow="rail rail_electric" spreadType="center" />
<!-- Track f2721e2e-db32-4c0b-bb48-a643b61d2b86 -->
<edge id="d2b86-2" from="f2721e2e-db32-4c0b-bb48-a643b61d2b86-km-254.45431792963808-in" to="cbed0" shape="-2498293.0708839176,3466704.520165761 -2498268.7242329344,3466698.8420863394" priority="-1" numLanes="1" speed="110.0" allow="rail rail_electric" spreadType="center" />
<edge id="d2b86-2-re" from="cbed0" to="f2721e2e-db32-4c0b-bb48-a643b61d2b86-km-254.45431792963808-in" shape="-2498268.7242329344,3466698.8420863394 -2498293.0708839176,3466704.520165761" priority="-1" numLanes="1" speed="110.0" allow="rail rail_electric" spreadType="center" />
<!-- Track 3dd862ae-8b5a-4884-a600-520ba4fda8b3 -->
<edge id="da8b3-0" from="47614" to="67aaf" shape="-2498540.5476426897,3466763.493575601 -2498576.533874395,3466770.6508105323" priority="-1" numLanes="1" speed="110.0" allow="rail rail_electric" spreadType="center" />
<edge id="da8b3-0-re" from="67aaf" to="47614" shape="-2498576.533874395,3466770.6508105323 -2498540.5476426897,3466763.493575601" priority="-1" numLanes="1" speed="110.0" allow="rail rail_electric" spreadType="center" />
<!-- Track 5f672916-df08-4751-b2f8-fed51b329af9 -->
<edge id="29af9-0" from="47614" to="5f672916-df08-4751-b2f8-fed51b329af9-km-25-gegen" shape="-2498540.5476426897,3466763.493575601 -2498515.754955294,3466760.2806872274" priority="-1" numLanes="1" speed="110.0" allow="rail rail_electric" spreadType="center" />
<edge id="29af9-0-re" from="5f672916-df08-4751-b2f8-fed51b329af9-km-25-gegen" to="47614" shape="-2498515.754955294,3466760.2806872274 -2498540.5476426897,3466763.493575601" priority="-1" numLanes="1" speed="110.0" allow="rail rail_electric" spreadType="center" />
<!-- Track 5f672916-df08-4751-b2f8-fed51b329af9 -->
<edge id="29af9-1" from="5f672916-df08-4751-b2f8-fed51b329af9-km-25-gegen" to="5f672916-df08-4751-b2f8-fed51b329af9-km-990.0-gegen" shape="-2498515.754955294,3466760.2806872274 -2498252.6826554104,3466726.1891052946 -2498197.4809421357,3466721.890851874 -2498139.0232320046,3466720.7062249817 -2498060.3311859164,3466723.9792294167 -2497982.494693488,3466733.0181929395 -2497909.9296493446,3466748.156458294 -2497850.3497261205,3466766.0617731884 -2497809.3890527356,3466783.1006195005 -2497777.617311281,3466798.021042254 -2497757.6510621565,3466807.115437001 -2497727.259331015,3466826.298858639 -2497702.7541591264,3466844.8849410564 -2497672.7244021073,3466868.5284555852 -2497638.2983654123,3466909.567890471 -2497620.815696167,3466937.0164132947" priority="-1" numLanes="1" speed="110.0" allow="rail rail_electric" spreadType="center" />
<edge id="29af9-1-re" from="5f672916-df08-4751-b2f8-fed51b329af9-km-990.0-gegen" to="5f672916-df08-4751-b2f8-fed51b329af9-km-25-gegen" shape="-2497620.815696167,3466937.0164132947 -2497638.2983654123,3466909.567890471 -2497672.7244021073,3466868.5284555852 -2497702.7541591264,3466844.8849410564 -2497727.259331015,3466826.298858639 -2497757.6510621565,3466807.115437001 -2497777.617311281,3466798.021042254 -2497809.3890527356,3466783.1006195005 -2497850.3497261205,3466766.0617731884 -2497909.9296493446,3466748.156458294 -2497982.494693488,3466733.0181929395 -2498060.3311859164,3466723.9792294167 -2498139.0232320046,3466720.7062249817 -2498197.4809421357,3466721.890851874 -2498252.6826554104,3466726.1891052946 -2498515.754955294,3466760.2806872274" priority="-1" numLanes="1" speed="110.0" allow="rail rail_electric" spreadType="center" />
<!-- Track 5f672916-df08-4751-b2f8-fed51b329af9 -->
<edge id="29af9-2" from="5f672916-df08-4751-b2f8-fed51b329af9-km-990.0-gegen" to="5f672916-df08-4751-b2f8-fed51b329af9-km-1010.0-in" shape="-2497620.815696167,3466937.0164132947 -2497613.251409583,3466948.8926599957 -2497610.6619174792,3466954.2155981967" priority="-1" numLanes="1" speed="110.0" allow="rail rail_electric" spreadType="center" />
<edge id="29af9-2-re" from="5f672916-df08-4751-b2f8-fed51b329af9-km-1010.0-in" to="5f672916-df08-4751-b2f8-fed51b329af9-km-990.0-gegen" shape="-2497610.6619174792,3466954.2155981967 -2497613.251409583,3466948.8926599957 -2497620.815696167,3466937.0164132947" priority="-1" numLanes="1" speed="110.0" allow="rail rail_electric" spreadType="center" />
<!-- Track 5f672916-df08-4751-b2f8-fed51b329af9 -->
<edge id="29af9-3" from="5f672916-df08-4751-b2f8-fed51b329af9-km-1010.0-in" to="5f672916-df08-4751-b2f8-fed51b329af9-km-1990.0-gegen" shape="-2497610.6619174792,3466954.2155981967 -2497593.607536464,3466989.272440452 -2497575.081284268,3467046.9352106173 -2497569.9086821945,3467066.77810714 -2497563.7344133407,3467105.9624592084 -2497557.5013369834,3467146.900458861 -2497556.054178887,3467193.9233511053 -2497556.2335239397,3467236.880963335 -2497560.396947277,3467302.475907631 -2497575.6325155986,3467387.626045577 -2497591.9254659587,3467452.6755200922 -2497624.940307323,3467543.711189067 -2497663.9474137807,3467628.1184534803 -2497712.753345648,3467713.11196517 -2497760.352298308,3467784.1246131547 -2497819.4775981517,3467860.077331407" priority="-1" numLanes="1" speed="110.0" allow="rail rail_electric" spreadType="center" />
<edge id="29af9-3-re" from="5f672916-df08-4751-b2f8-fed51b329af9-km-1990.0-gegen" to="5f672916-df08-4751-b2f8-fed51b329af9-km-1010.0-in" shape="-2497819.4775981517,3467860.077331407 -2497760.352298308,3467784.1246131547 -2497712.753345648,3467713.11196517 -2497663.9474137807,3467628.1184534803 -2497624.940307323,3467543.711189067 -2497591.9254659587,3467452.6755200922 -2497575.6325155986,3467387.626045577 -2497560.396947277,3467302.475907631 -2497556.2335239397,3467236.880963335 -2497556.054178887,3467193.9233511053 -2497557.5013369834,3467146.900458861 -2497563.7344133407,3467105.9624592084 -2497569.9086821945,3467066.77810714 -2497575.081284268,3467046.9352106173 -2497593.607536464,3466989.272440452 -2497610.6619174792,3466954.2155981967" priority="-1" numLanes="1" speed="110.0" allow="rail rail_electric" spreadType="center" />
<!-- Track 5f672916-df08-4751-b2f8-fed51b329af9 -->
<edge id="29af9-4" from="5f672916-df08-4751-b2f8-fed51b329af9-km-1990.0-gegen" to="5f672916-df08-4751-b2f8-fed51b329af9-km-2010.0-in" shape="-2497819.4775981517,3467860.077331407 -2497825.0446568336,3467867.2288087048 -2497832.253334304,3467875.4541106424" priority="-1" numLanes="1" speed="110.0" allow="rail rail_electric" spreadType="center" />
<edge id="29af9-4-re" from="5f672916-df08-4751-b2f8-fed51b329af9-km-2010.0-in" to="5f672916-df08-4751-b2f8-fed51b329af9-km-1990.0-gegen" shape="-2497832.253334304,3467875.4541106424 -2497825.0446568336,3467867.2288087048 -2497819.4775981517,3467860.077331407" priority="-1" numLanes="1" speed="110.0" allow="rail rail_electric" spreadType="center" />
<!-- Track 5f672916-df08-4751-b2f8-fed51b329af9 -->
<edge id="29af9-5" from="5f672916-df08-4751-b2f8-fed51b329af9-km-2010.0-in" to="5f672916-df08-4751-b2f8-fed51b329af9-km-2990.0-gegen" shape="-2497832.253334304,3467875.4541106424 -2497882.947905049,3467933.2980289906 -2497954.1841731174,3468006.7474954054 -2498048.3906442933,3468092.7958315127 -2498147.851398303,3468178.256744899 -2498263.9241143996,3468270.6784133688 -2498342.1996997884,3468330.467676915 -2498420.8086415282,3468386.541345766 -2498581.4953465164,3468503.2734258794" priority="-1" numLanes="1" speed="110.0" allow="rail rail_electric" spreadType="center" />
<edge id="29af9-5-re" from="5f672916-df08-4751-b2f8-fed51b329af9-km-2990.0-gegen" to="5f672916-df08-4751-b2f8-fed51b329af9-km-2010.0-in" shape="-2498581.4953465164,3468503.2734258794 -2498420.8086415282,3468386.541345766 -2498342.1996997884,3468330.467676915 -2498263.9241143996,3468270.6784133688 -2498147.851398303,3468178.256744899 -2498048.3906442933,3468092.7958315127 -2497954.1841731174,3468006.7474954054 -2497882.947905049,3467933.2980289906 -2497832.253334304,3467875.4541106424" priority="-1" numLanes="1" speed="110.0" allow="rail rail_electric" spreadType="center" />
<!-- Track 5f672916-df08-4751-b2f8-fed51b329af9 -->
<edge id="29af9-6" from="5f672916-df08-4751-b2f8-fed51b329af9-km-2990.0-gegen" to="5f672916-df08-4751-b2f8-fed51b329af9-km-3010.0-in" shape="-2498581.4953465164,3468503.2734258794 -2498597.6763397604,3468515.0282316045" priority="-1" numLanes="1" speed="110.0" allow="rail rail_electric" spreadType="center" />
<edge id="29af9-6-re" from="5f672916-df08-4751-b2f8-fed51b329af9-km-3010.0-in" to="5f672916-df08-4751-b2f8-fed51b329af9-km-2990.0-gegen" shape="-2498597.6763397604,3468515.0282316045 -2498581.4953465164,3468503.2734258794" priority="-1" numLanes="1" speed="110.0" allow="rail rail_electric" spreadType="center" />
<!-- Track 5f672916-df08-4751-b2f8-fed51b329af9 -->
<edge id="29af9-7" from="5f672916-df08-4751-b2f8-fed51b329af9-km-3010.0-in" to="5f672916-df08-4751-b2f8-fed51b329af9-km-3990.0-gegen" shape="-2498597.6763397604,3468515.0282316045 -2498652.2203915613,3468554.6521732677 -2499030.1810028283,3468824.3028133363 -2499393.5156883784,3469086.893104447" priority="-1" numLanes="1" speed="110.0" allow="rail rail_electric" spreadType="center" />
<edge id="29af9-7-re" from="5f672916-df08-4751-b2f8-fed51b329af9-km-3990.0-gegen" to="5f672916-df08-4751-b2f8-fed51b329af9-km-3010.0-in" shape="-2499393.5156883784,3469086.893104447 -2499030.1810028283,3468824.3028133363 -2498652.2203915613,3468554.6521732677 -2498597.6763397604,3468515.0282316045" priority="-1" numLanes="1" speed="110.0" allow="rail rail_electric" spreadType="center" />
<!-- Track 5f672916-df08-4751-b2f8-fed51b329af9 -->
<edge id="29af9-8" from="5f672916-df08-4751-b2f8-fed51b329af9-km-3990.0-gegen" to="5f672916-df08-4751-b2f8-fed51b329af9-km-4010.0-in" shape="-2499393.5156883784,3469086.893104447 -2499409.725420058,3469098.6082484447" priority="-1" numLanes="1" speed="110.0" allow="rail rail_electric" spreadType="center" />
<edge id="29af9-8-re" from="5f672916-df08-4751-b2f8-fed51b329af9-km-4010.0-in" to="5f672916-df08-4751-b2f8-fed51b329af9-km-3990.0-gegen" shape="-2499409.725420058,3469098.6082484447 -2499393.5156883784,3469086.893104447" priority="-1" numLanes="1" speed="110.0" allow="rail rail_electric" spreadType="center" />
<!-- Track 5f672916-df08-4751-b2f8-fed51b329af9 -->
<edge id="29af9-9" from="5f672916-df08-4751-b2f8-fed51b329af9-km-4010.0-in" to="5f672916-df08-4751-b2f8-fed51b329af9-km-5560.253303703657-in" shape="-2499409.725420058,3469098.6082484447 -2499492.798785879,3469158.6472708173 -2499607.485439456,3469240.351318307 -2500024.2620206666,3469539.4774315134 -2500184.6441849023,3469655.137520615 -2500305.0514081763,3469739.8357069865 -2500418.802494419,3469824.2594126724 -2500574.488916107,3469936.359394327 -2500644.862524883,3469986.7818101123 -2500668.2600728334,3470003.756698894" priority="-1" numLanes="1" speed="110.0" allow="rail rail_electric" spreadType="center" />
<edge id="29af9-9-re" from="5f672916-df08-4751-b2f8-fed51b329af9-km-5560.253303703657-in" to="5f672916-df08-4751-b2f8-fed51b329af9-km-4010.0-in" shape="-2500668.2600728334,3470003.756698894 -2500644.862524883,3469986.7818101123 -2500574.488916107,3469936.359394327 -2500418.802494419,3469824.2594126724 -2500305.0514081763,3469739.8357069865 -2500184.6441849023,3469655.137520615 -2500024.2620206666,3469539.4774315134 -2499607.485439456,3469240.351318307 -2499492.798785879,3469158.6472708173 -2499409.725420058,3469098.6082484447" priority="-1" numLanes="1" speed="110.0" allow="rail rail_electric" spreadType="center" />
<!-- Track 5f672916-df08-4751-b2f8-fed51b329af9 -->