<connections>
<!-- Point 5bc60 5fcf268b-96ad-42f2-a1e4-ce768ab5bc60 -->
<connection from="5572a-0" to="b99be-0"/>
<connection from="5572a-0" to="b99be-0-re"/>
<connection from="5572a-0-re" to="b99be-0"/>
<connection from="5572a-0-re" to="b99be-0-re"/>
<connection from="89cd1-0" to="b99be-0"/>
<connection from="89cd1-0" to="b99be-0-re"/>
<connection from="89cd1-0-re" to="b99be-0"/>
<connection from="89cd1-0-re" to="b99be-0-re"/>
<connection from="b99be-0" to="5572a-0"/>
<connection from="b99be-0" to="89cd1-0"/>
<connection from="b99be-0" to="5572a-0-re"/>
<connection from="b99be-0" to="89cd1-0-re"/>
<connection from="b99be-0-re" to="5572a-0"/>
<connection from="b99be-0-re" to="89cd1-0"/>
<connection from="b99be-0-re" to="5572a-0-re"/>
<connection from="b99be-0-re" to="89cd1-0-re"/>
<!-- Point 5d350 d1a24f8f-4c52-4ea2-8879-d0cb99a5d350 -->
<connection from="2f8e5-0" to="89cd1-4"/>
<connection from="2f8e5-0" to="89cd1-4-re"/>
<connection from="2f8e5-0-re" to="89cd1-4"/>
<connection from="2f8e5-0-re" to="89cd1-4-re"/>
<connection from="a5be4-0" to="89cd1-4"/>
<connection from="a5be4-0" to="89cd1-4-re"/>
<connection from="a5be4-0-re" to="89cd1-4"/>
<connection from="a5be4-0-re" to="89cd1-4-re"/>
<connection from="89cd1-4" to="2f8e5-0"/>
<connection from="89cd1-4" to="a5be4-0"/>
<connection from="89cd1-4" to="2f8e5-0-re"/>
<connection from="89cd1-4" to="a5be4-0-re"/>
<connection from="89cd1-4-re" to="2f8e5-0"/>
<connection from="89cd1-4-re" to="a5be4-0"/>
<connection from="89cd1-4-re" to="2f8e5-0-re"/>
<connection from="89cd1-4-re" to="a5be4-0-re"/>
<!-- Point 16d42 e150fbbf-f61b-445f-95c5-167fd8116d42 -->
<connection from="4e3d9-0" to="d80d0-0"/>
<connection from="4e3d9-0" to="d80d0-0-re"/>
<connection from="4e3d9-0-re" to="d80d0-0"/>
<connection from="4e3d9-0-re" to="d80d0-0-re"/>
<connection from="2f8e5-4" to="d80d0-0"/>
<connection from="2f8e5-4" to="d80d0-0-re"/>
<connection from="2f8e5-4-re" to="d80d0-0"/>
<connection from="2f8e5-4-re" to="d80d0-0-re"/>
<connection from="d80d0-0" to="4e3d9-0"/>
<connection from="d80d0-0" to="2f8e5-4"/>
<connection from="d80d0-0" to="4e3d9-0-re"/>
<connection from="d80d0-0" to="2f8e5-4-re"/>
<connection from="d80d0-0-re" to="4e3d9-0"/>
<connection from="d80d0-0-re" to="2f8e5-4"/>
<connection from="d80d0-0-re" to="4e3d9-0-re"/>
<connection from="d80d0-0-re" to="2f8e5-4-re"/>
<!-- Point 99da4 5b941af9-8dfa-4c6c-8516-547088799da4 -->
<connection from="d80d0-4" to="37862-0"/>
<connection from="d80d0-4" to="37862-0-re"/>
<connection from="d80d0-4-re" to="37862-0"/>
<connection from="d80d0-4-re" to="37862-0-re"/>
<connection from="5f4ca-0" to="37862-0"/>
<connection from="5f4ca-0" to="37862-0-re"/>
<connection from="5f4ca-0-re" to="37862-0"/>
<connection from="5f4ca-0-re" to="37862-0-re"/>
<connection from="37862-0" to="d80d0-4"/>
<connection from="37862-0" to="5f4ca-0"/>
<connection from="37862-0" to="d80d0-4-re"/>
<connection from="37862-0" to="5f4ca-0-re"/>
<connection from="37862-0-re" to="d80d0-4"/>
<connection from="37862-0-re" to="5f4ca-0"/>
<connection from="37862-0-re" to="d80d0-4-re"/>
<connection from="37862-0-re" to="5f4ca-0-re"/>
<!-- Point 48746 3993a0f8-cae4-4995-b65a-69661ac48746 -->
<connection from="28fda-0" to="d93ca-0"/>
<connection from="28fda-0" to="d93ca-0-re"/>
<connection from="28fda-0-re" to="d93ca-0"/>
<connection from="28fda-0-re" to="d93ca-0-re"/>
<connection from="79fa0-0" to="d93ca-0"/>
<connection from="79fa0-0" to="d93ca-0-re"/>
<connection from="79fa0-0-re" to="d93ca-0"/>
<connection from="79fa0-0-re" to="d93ca-0-re"/>
<connection from="d93ca-0" to="28fda-0"/>
<connection from="d93ca-0" to="79fa0-0"/>
<connection from="d93ca-0" to="28fda-0-re"/>
<connection from="d93ca-0" to="79fa0-0-re"/>
<connection from="d93ca-0-re" to="28fda-0"/>
<connection from="d93ca-0-re" to="79fa0-0"/>
<connection from="d93ca-0-re" to="28fda-0-re"/>
<connection from="d93ca-0-re" to="79fa0-0-re"/>
<!-- Point 7b452 aa7c7fec-8dbf-4d5f-a0dc-2ce56ba7b452 -->
<connection from="86419-0" to="a0938-0"/>
<connection from="86419-0" to="a0938-0-re"/>
<connection from="86419-0-re" to="a0938-0"/>
<connection from="86419-0-re" to="a0938-0-re"/>
<connection from="79fa0-4" to="a0938-0"/>
<connection from="79fa0-4" to="a0938-0-re"/>
<connection from="79fa0-4-re" to="a0938-0"/>
<connection from="79fa0-4-re" to="a0938-0-re"/>
<connection from="a0938-0" to="86419-0"/>
<connection from="a0938-0" to="79fa0-4"/>
<connection from="a0938-0" to="86419-0-re"/>
<connection from="a0938-0" to="79fa0-4-re"/>
<connection from="a0938-0-re" to="86419-0"/>
<connection from="a0938-0-re" to="79fa0-4"/>
<connection from="a0938-0-re" to="86419-0-re"/>
<connection from="a0938-0-re" to="79fa0-4-re"/>
<!-- Point f8a4d 5d5c1b21-46d3-4ce3-a60b-b2d595ff8a4d -->
<connection from="2d770-0" to="f41f4-0"/>
<connection from="2d770-0" to="f41f4-0-re"/>
<connection from="2d770-0-re" to="f41f4-0"/>
<connection from="2d770-0-re" to="f41f4-0-re"/>
<connection from="35665-0" to="f41f4-0"/>
<connection from="35665-0" to="f41f4-0-re"/>
<connection from="35665-0-re" to="f41f4-0"/>
<connection from="35665-0-re" to="f41f4-0-re"/>
<connection from="f41f4-0" to="2d770-0"/>
<connection from="f41f4-0" to="35665-0"/>
<connection from="f41f4-0" to="2d770-0-re"/>
<connection from="f41f4-0" to="35665-0-re"/>
<connection from="f41f4-0-re" to="2d770-0"/>
<connection from="f41f4-0-re" to="35665-0"/>
<connection from="f41f4-0-re" to="2d770-0-re"/>
<connection from="f41f4-0-re" to="35665-0-re"/>
<!-- Point 68124 eabe6d1b-db0f-48ef-a7e8-c215c4a68124 -->
<connection from="2862c-0" to="d4690-0"/>
<connection from="2862c-0" to="d4690-0-re"/>
<connection from="2862c-0-re" to="d4690-0"/>
<connection from="2862c-0-re" to="d4690-0-re"/>
<connection from="9b5da-0" to="d4690-0"/>
<connection from="9b5da-0" to="d4690-0-re"/>
<connection from="9b5da-0-re" to="d4690-0"/>
<connection from="9b5da-0-re" to="d4690-0-re"/>
<connection from="d4690-0" to="2862c-0"/>
<connection from="d4690-0" to="9b5da-0"/>
<connection from="d4690-0" to="2862c-0-re"/>
<connection from="d4690-0" to="9b5da-0-re"/>
<connection from="d4690-0-re" to="2862c-0"/>
<connection from="d4690-0-re" to="9b5da-0"/>
<connection from="d4690-0-re" to="2862c-0-re"/>
<connection from="d4690-0-re" to="9b5da-0-re"/>
<!-- Point f21b0 3cecd868-f9da-4936-a569-1f3e88cf21b0 -->
<connection from="c87b7-0" to="9b5da-0"/>
<connection from="c87b7-0" to="9b5da-0-re"/>
<connection from="c87b7-0-re" to="9b5da-0"/>
<connection from="c87b7-0-re" to="9b5da-0-re"/>
<connection from="d8db9-0" to="9b5da-0"/>
<connection from="d8db9-0" to="9b5da-0-re"/>
<connection from="d8db9-0-re" to="9b5da-0"/>
<connection from="d8db9-0-re" to="9b5da-0-re"/>
<connection from="9b5da-0" to="c87b7-0"/>
<connection from="9b5da-0" to="d8db9-0"/>
<connection from="9b5da-0" to="c87b7-0-re"/>
<connection from="9b5da-0" to="d8db9-0-re"/>
<connection from="9b5da-0-re" to="c87b7-0"/>
<connection from="9b5da-0-re" to="d8db9-0"/>
<connection from="9b5da-0-re" to="c87b7-0-re"/>
<connection from="9b5da-0-re" to="d8db9-0-re"/>
<!-- Point 68389 34ab253d-6dfe-479a-b105-65901cc68389 -->
<connection from="362c1-0" to="61ea9-0"/>
<connection from="362c1-0" to="61ea9-0-re"/>
<connection from="362c1-0-re" to="61ea9-0"/>
<connection from="362c1-0-re" to="61ea9-0-re"/>
<connection from="d8db9-4" to="61ea9-0"/>
<connection from="d8db9-4" to="61ea9-0-re"/>
<connection from="d8db9-4-re" to="61ea9-0"/>
<connection from="d8db9-4-re" to="61ea9-0-re"/>
<connection from="61ea9-0" to="362c1-0"/>
<connection from="61ea9-0" to="d8db9-4"/>
<connection from="61ea9-0" to="362c1-0-re"/>
<connection from="61ea9-0" to="d8db9-4-re"/>
<connection from="61ea9-0-re" to="362c1-0"/>
<connection from="61ea9-0-re" to="d8db9-4"/>
<connection from="61ea9-0-re" to="362c1-0-re"/>
<connection from="61ea9-0-re" to="d8db9-4-re"/>
<!-- Point c70b7 fac0615b-d94d-424e-a437-915ce9ac70b7 -->
<connection from="61ea9-0" to="66a23-0"/>
<connection from="61ea9-0" to="66a23-0-re"/>
<connection from="61ea9-0-re" to="66a23-0"/>
<connection from="61ea9-0-re" to="66a23-0-re"/>
<connection from="321bf-0" to="66a23-0"/>
<connection from="321bf-0" to="66a23-0-re"/>
<connection from="321bf-0-re" to="66a23-0"/>
<connection from="321bf-0-re" to="66a23-0-re"/>
<connection from="66a23-0" to="61ea9-0"/>
<connection from="66a23-0" to="321bf-0"/>
<connection from="66a23-0" to="61ea9-0-re"/>
<connection from="66a23-0" to="321bf-0-re"/>
<connection from="66a23-0-re" to="61ea9-0"/>
<connection from="66a23-0-re" to="321bf-0"/>
<connection from="66a23-0-re" to="61ea9-0-re"/>
<connection from="66a23-0-re" to="321bf-0-re"/>
<!-- Point fb95f 542b624c-9c0c-49e8-99d7-f70ed9bfb95f -->
<connection from="66a23-0" to="ca847-0"/>
<connection from="66a23-0" to="ca847-0-re"/>
<connection from="66a23-0-re" to="ca847-0"/>
<connection from="66a23-0-re" to="ca847-0-re"/>
<connection from="9b5f5-0" to="ca847-0"/>
<connection from="9b5f5-0" to="ca847-0-re"/>
<connection from="9b5f5-0-re" to="ca847-0"/>
<connection from="9b5f5-0-re" to="ca847-0-re"/>
<connection from="ca847-0" to="66a23-0"/>
<connection from="ca847-0" to="9b5f5-0"/>
<connection from="ca847-0" to="66a23-0-re"/>
<connection from="ca847-0" to="9b5f5-0-re"/>
<connection from="ca847-0-re" to="66a23-0"/>
<connection from="ca847-0-re" to="9b5f5-0"/>
<connection from="ca847-0-re" to="66a23-0-re"/>
<connection from="ca847-0-re" to="9b5f5-0-re"/>
<!-- Point 5ed28 b24c0268-1f07-46f4-b042-f6c02f05ed28 -->
<connection from="d0ed9-0" to="ca847-4"/>
<connection from="d0ed9-0" to="ca847-4-re"/>
<connection from="d0ed9-0-re" to="ca847-4"/>
<connection from="d0ed9-0-re" to="ca847-4-re"/>
<connection from="717bd-0" to="ca847-4"/>
<connection from="717bd-0" to="ca847-4-re"/>
<connection from="717bd-0-re" to="ca847-4"/>
<connection from="717bd-0-re" to="ca847-4-re"/>
<connection from="ca847-4" to="d0ed9-0"/>
<connection from="ca847-4" to="717bd-0"/>
<connection from="ca847-4" to="d0ed9-0-re"/>
<connection from="ca847-4" to="717bd-0-re"/>
<connection from="ca847-4-re" to="d0ed9-0"/>
<connection from="ca847-4-re" to="717bd-0"/>
<connection from="ca847-4-re" to="d0ed9-0-re"/>
<connection from="ca847-4-re" to="717bd-0-re"/>
<!-- Point 16596 7463c632-59cd-473f-952a-543d5f616596 -->
<connection from="85549-0" to="d5716-0"/>
<connection from="85549-0" to="d5716-0-re"/>
<connection from="85549-0-re" to="d5716-0"/>
<connection from="85549-0-re" to="d5716-0-re"/>
<connection from="717bd-4" to="d5716-0"/>
<connection from="717bd-4" to="d5716-0-re"/>
<connection from="717bd-4-re" to="d5716-0"/>
<connection from="717bd-4-re" to="d5716-0-re"/>
<connection from="d5716-0" to="85549-0"/>
<connection from="d5716-0" to="717bd-4"/>
<connection from="d5716-0" to="85549-0-re"/>
<connection from="d5716-0" to="717bd-4-re"/>
<connection from="d5716-0-re" to="85549-0"/>
<connection from="d5716-0-re" to="717bd-4"/>
<connection from="d5716-0-re" to="85549-0-re"/>
<connection from="d5716-0-re" to="717bd-4-re"/>

<!-- Point 434b3 1e631075-fad0-4181-848f-4214400434b3 -->
<connection from="b71e2-0" to="97087-0"/>
<connection from="b71e2-0" to="97087-0-re"/>
<connection from="b71e2-0-re" to="97087-0"/>
<connection from="b71e2-0-re" to="97087-0-re"/>
<connection from="6219e-0" to="97087-0"/>
<connection from="6219e-0" to="97087-0-re"/>
<connection from="6219e-0-re" to="97087-0"/>
<connection from="6219e-0-re" to="97087-0-re"/>
<connection from="97087-0" to="b71e2-0"/>
<connection from="97087-0" to="6219e-0"/>
<connection from="97087-0" to="b71e2-0-re"/>
<connection from="97087-0" to="6219e-0-re"/>
<connection from="97087-0-re" to="b71e2-0"/>
<connection from="97087-0-re" to="6219e-0"/>
<connection from="97087-0-re" to="b71e2-0-re"/>
<connection from="97087-0-re" to="6219e-0-re"/>
<!-- Point 56240 31700457-1caf-4321-9972-9333f1a56240 -->
<connection from="b71e2-4" to="35772-0"/>
<connection from="b71e2-4" to="35772-0-re"/>
<connection from="b71e2-4-re" to="35772-0"/>
<connection from="b71e2-4-re" to="35772-0-re"/>
<connection from="491ec-0" to="35772-0"/>
<connection from="491ec-0" to="35772-0-re"/>
<connection from="491ec-0-re" to="35772-0"/>
<connection from="491ec-0-re" to="35772-0-re"/>
<connection from="35772-0" to="b71e2-4"/>
<connection from="35772-0" to="491ec-0"/>
<connection from="35772-0" to="b71e2-4-re"/>
<connection from="35772-0" to="491ec-0-re"/>
<connection from="35772-0-re" to="b71e2-4"/>
<connection from="35772-0-re" to="491ec-0"/>
<connection from="35772-0-re" to="b71e2-4-re"/>
<connection from="35772-0-re" to="491ec-0-re"/>
<!-- Point b98a4 17b0582f-eb1d-4ad4-a3ed-efe18c7b98a4 -->
<connection from="097c2-0" to="35772-0"/>
<connection from="097c2-0" to="35772-0-re"/>
<connection from="097c2-0-re" to="35772-0"/>
<connection from="097c2-0-re" to="35772-0-re"/>
<connection from="2a53e-0" to="35772-0"/>
<connection from="2a53e-0" to="35772-0-re"/>
<connection from="2a53e-0-re" to="35772-0"/>
<connection from="2a53e-0-re" to="35772-0-re"/>
<connection from="35772-0" to="097c2-0"/>
<connection from="35772-0" to="2a53e-0"/>
<connection from="35772-0" to="097c2-0-re"/>
<connection from="35772-0" to="2a53e-0-re"/>
<connection from="35772-0-re" to="097c2-0"/>
<connection from="35772-0-re" to="2a53e-0"/>
<connection from="35772-0-re" to="097c2-0-re"/>
<connection from="35772-0-re" to="2a53e-0-re"/>
<!-- Point 37848 b6472fea-7fc2-41e1-b13a-9e82bda37848 -->
<connection from="24e9c-0" to="372a2-0"/>
<connection from="24e9c-0" to="372a2-0-re"/>
<connection from="24e9c-0-re" to="372a2-0"/>
<connection from="24e9c-0-re" to="372a2-0-re"/>
<connection from="f797b-0" to="372a2-0"/>
<connection from="f797b-0" to="372a2-0-re"/>
<connection from="f797b-0-re" to="372a2-0"/>
<connection from="f797b-0-re" to="372a2-0-re"/>
<connection from="372a2-0" to="24e9c-0"/>
<connection from="372a2-0" to="f797b-0"/>
<connection from="372a2-0" to="24e9c-0-re"/>
<connection from="372a2-0" to="f797b-0-re"/>
<connection from="372a2-0-re" to="24e9c-0"/>
<connection from="372a2-0-re" to="f797b-0"/>
<connection from="372a2-0-re" to="24e9c-0-re"/>
<connection from="372a2-0-re" to="f797b-0-re"/>
<!-- Point b859d bc51d879-3e18-4489-8fa5-1e19889b859d -->
<connection from="d0fb0-0" to="a0938-4"/>
<connection from="d0fb0-0" to="a0938-4-re"/>
<connection from="d0fb0-0-re" to="a0938-4"/>
<connection from="d0fb0-0-re" to="a0938-4-re"/>
<connection from="e01f4-0" to="a0938-4"/>
<connection from="e01f4-0" to="a0938-4-re"/>
<connection from="e01f4-0-re" to="a0938-4"/>
<connection from="e01f4-0-re" to="a0938-4-re"/>
<connection from="a0938-4" to="d0fb0-0"/>
<connection from="a0938-4" to="e01f4-0"/>
<connection from="a0938-4" to="d0fb0-0-re"/>
<connection from="a0938-4" to="e01f4-0-re"/>
<connection from="a0938-4-re" to="d0fb0-0"/>
<connection from="a0938-4-re" to="e01f4-0"/>
<connection from="a0938-4-re" to="d0fb0-0-re"/>
<connection from="a0938-4-re" to="e01f4-0-re"/>
<!-- Point d5add c0063e6b-d498-4450-b21c-48fefced5add -->
<connection from="eb9e6-0" to="db293-0"/>
<connection from="eb9e6-0" to="db293-0-re"/>
<connection from="eb9e6-0-re" to="db293-0"/>
<connection from="eb9e6-0-re" to="db293-0-re"/>
<connection from="d0fb0-4" to="db293-0"/>
<connection from="d0fb0-4" to="db293-0-re"/>
<connection from="d0fb0-4-re" to="db293-0"/>
<connection from="d0fb0-4-re" to="db293-0-re"/>
<connection from="db293-0" to="eb9e6-0"/>
<connection from="db293-0" to="d0fb0-4"/>
<connection from="db293-0" to="eb9e6-0-re"/>
<connection from="db293-0" to="d0fb0-4-re"/>
<connection from="db293-0-re" to="eb9e6-0"/>
<connection from="db293-0-re" to="d0fb0-4"/>
<connection from="db293-0-re" to="eb9e6-0-re"/>
<connection from="db293-0-re" to="d0fb0-4-re"/>
<!-- Point 8aa5c 78a58b88-5977-405a-9ed8-3fec7348aa5c -->
<connection from="63345-0" to="db293-0"/>
<connection from="63345-0" to="db293-0-re"/>
<connection from="63345-0-re" to="db293-0"/>
<connection from="63345-0-re" to="db293-0-re"/>
<connection from="ef286-0" to="db293-0"/>
<connection from="ef286-0" to="db293-0-re"/>
<connection from="ef286-0-re" to="db293-0"/>
<connection from="ef286-0-re" to="db293-0-re"/>
<connection from="db293-0" to="63345-0"/>
<connection from="db293-0" to="ef286-0"/>
<connection from="db293-0" to="63345-0-re"/>
<connection from="db293-0" to="ef286-0-re"/>
<connection from="db293-0-re" to="63345-0"/>
<connection from="db293-0-re" to="ef286-0"/>
<connection from="db293-0-re" to="63345-0-re"/>
<connection from="db293-0-re" to="ef286-0-re"/>
<!-- Point 9632a e6421db6-865d-4dc3-b4e1-bd8724c9632a -->
<connection from="ef286-4" to="f41f4-0"/>
<connection from="ef286-4" to="f41f4-0-re"/>
<connection from="ef286-4-re" to="f41f4-0"/>
<connection from="ef286-4-re" to="f41f4-0-re"/>
<connection from="e10a3-0" to="f41f4-0"/>
<connection from="e10a3-0" to="f41f4-0-re"/>
<connection from="e10a3-0-re" to="f41f4-0"/>
<connection from="e10a3-0-re" to="f41f4-0-re"/>
<connection from="f41f4-0" to="ef286-4"/>
<connection from="f41f4-0" to="e10a3-0"/>
<connection from="f41f4-0" to="ef286-4-re"/>
<connection from="f41f4-0" to="e10a3-0-re"/>
<connection from="f41f4-0-re" to="ef286-4"/>
<connection from="f41f4-0-re" to="e10a3-0"/>
<connection from="f41f4-0-re" to="ef286-4-re"/>
<connection from="f41f4-0-re" to="e10a3-0-re"/>
<!-- Point 44fbb 77f40965-f1de-4c76-8d27-fb5193044fbb -->
<connection from="ee320-0" to="3d078-0"/>
<connection from="ee320-0" to="3d078-0-re"/>
<connection from="ee320-0-re" to="3d078-0"/>
<connection from="ee320-0-re" to="3d078-0-re"/>
<connection from="372a2-16" to="3d078-0"/>
<connection from="372a2-16" to="3d078-0-re"/>
<connection from="372a2-16-re" to="3d078-0"/>
<connection from="372a2-16-re" to="3d078-0-re"/>
<connection from="3d078-0" to="ee320-0"/>
<connection from="3d078-0" to="372a2-16"/>
<connection from="3d078-0" to="ee320-0-re"/>
<connection from="3d078-0" to="372a2-16-re"/>
<connection from="3d078-0-re" to="ee320-0"/>
<connection from="3d078-0-re" to="372a2-16"/>
<connection from="3d078-0-re" to="ee320-0-re"/>
<connection from="3d078-0-re" to="372a2-16-re"/>

<!-- Point 6626a 41e2fd55-9df9-4a1f-985a-4818d8f6626a -->
<connection from="42d9a-4" to="45b2a-0"/>
<connection from="42d9a-4" to="45b2a-0-re"/>
<connection from="42d9a-4-re" to="45b2a-0"/>
<connection from="42d9a-4-re" to="45b2a-0-re"/>
<connection from="8760d-0" to="45b2a-0"/>
<connection from="8760d-0" to="45b2a-0-re"/>
<connection from="8760d-0-re" to="45b2a-0"/>
<connection from="8760d-0-re" to="45b2a-0-re"/>
<connection from="45b2a-0" to="42d9a-4"/>
<connection from="45b2a-0" to="8760d-0"/>
<connection from="45b2a-0" to="42d9a-4-re"/>
<connection from="45b2a-0" to="8760d-0-re"/>
<connection from="45b2a-0-re" to="42d9a-4"/>
<connection from="45b2a-0-re" to="8760d-0"/>
<connection from="45b2a-0-re" to="42d9a-4-re"/>
<connection from="45b2a-0-re" to="8760d-0-re"/>

<!-- Point a9f35 175bd927-e3e6-47ee-b155-a4dbe6fa9f35 -->
<connection from="45b2a-4" to="65dde-0"/>
<connection from="45b2a-4" to="65dde-0-re"/>
<connection from="45b2a-4-re" to="65dde-0"/>
<connection from="45b2a-4-re" to="65dde-0-re"/>
<connection from="a5615-0" to="65dde-0"/>
<connection from="a5615-0" to="65dde-0-re"/>
<connection from="a5615-0-re" to="65dde-0"/>
<connection from="a5615-0-re" to="65dde-0-re"/>
<connection from="65dde-0" to="45b2a-4"/>
<connection from="65dde-0" to="a5615-0"/>
<connection from="65dde-0" to="45b2a-4-re"/>
<connection from="65dde-0" to="a5615-0-re"/>
<connection from="65dde-0-re" to="45b2a-4"/>
<connection from="65dde-0-re" to="a5615-0"/>
<connection from="65dde-0-re" to="45b2a-4-re"/>
<connection from="65dde-0-re" to="a5615-0-re"/>
<!-- Point 4bf81 d9f6676a-b1ce-419f-a494-fbdb9684bf81 -->
<connection from="f144d-0" to="01062-0"/>
<connection from="f144d-0" to="01062-0-re"/>
<connection from="f144d-0-re" to="01062-0"/>
<connection from="f144d-0-re" to="01062-0-re"/>
<connection from="65dde-4" to="01062-0"/>
<connection from="65dde-4" to="01062-0-re"/>
<connection from="65dde-4-re" to="01062-0"/>
<connection from="65dde-4-re" to="01062-0-re"/>
<connection from="01062-0" to="f144d-0"/>
<connection from="01062-0" to="65dde-4"/>
<connection from="01062-0" to="f144d-0-re"/>
<connection from="01062-0" to="65dde-4-re"/>
<connection from="01062-0-re" to="f144d-0"/>
<connection from="01062-0-re" to="65dde-4"/>
<connection from="01062-0-re" to="f144d-0-re"/>
<connection from="01062-0-re" to="65dde-4-re"/>
<!-- Point c1bae 7b8c24b9-aec2-41a2-a85d-cb4dea6c1bae -->
<connection from="e505f-0" to="01062-0"/>
<connection from="e505f-0" to="01062-0-re"/>
<connection from="e505f-0-re" to="01062-0"/>
<connection from="e505f-0-re" to="01062-0-re"/>
<connection from="24fef-0" to="01062-0"/>
<connection from="24fef-0" to="01062-0-re"/>
<connection from="24fef-0-re" to="01062-0"/>
<connection from="24fef-0-re" to="01062-0-re"/>
<connection from="01062-0" to="e505f-0"/>
<connection from="01062-0" to="24fef-0"/>
<connection from="01062-0" to="e505f-0-re"/>
<connection from="01062-0" to="24fef-0-re"/>
<connection from="01062-0-re" to="e505f-0"/>
<connection from="01062-0-re" to="24fef-0"/>
<connection from="01062-0-re" to="e505f-0-re"/>
<connection from="01062-0-re" to="24fef-0-re"/>
<!-- Point 8707b d1c685c2-de12-48f9-9d8e-6b5b6978707b -->
<connection from="ffa5d-0" to="49209-0"/>
<connection from="ffa5d-0" to="49209-0-re"/>
<connection from="ffa5d-0-re" to="49209-0"/>
<connection from="ffa5d-0-re" to="49209-0-re"/>
<connection from="e505f-4" to="49209-0"/>
<connection from="e505f-4" to="49209-0-re"/>
<connection from="e505f-4-re" to="49209-0"/>
<connection from="e505f-4-re" to="49209-0-re"/>
<connection from="49209-0" to="ffa5d-0"/>
<connection from="49209-0" to="e505f-4"/>
<connection from="49209-0" to="ffa5d-0-re"/>
<connection from="49209-0" to="e505f-4-re"/>
<connection from="49209-0-re" to="ffa5d-0"/>
<connection from="49209-0-re" to="e505f-4"/>
<connection from="49209-0-re" to="ffa5d-0-re"/>
<connection from="49209-0-re" to="e505f-4-re"/>
<!-- Point 1c8c8 ece88a4a-a33f-45b2-924e-d0a1f1f1c8c8 -->
<connection from="003d4-0" to="49209-4"/>
<connection from="003d4-0" to="49209-4-re"/>
<connection from="003d4-0-re" to="49209-4"/>
<connection from="003d4-0-re" to="49209-4-re"/>
<connection from="69f96-0" to="49209-4"/>
<connection from="69f96-0" to="49209-4-re"/>
<connection from="69f96-0-re" to="49209-4"/>
<connection from="69f96-0-re" to="49209-4-re"/>
<connection from="49209-4" to="003d4-0"/>
<connection from="49209-4" to="69f96-0"/>
<connection from="49209-4" to="003d4-0-re"/>
<connection from="49209-4" to="69f96-0-re"/>
<connection from="49209-4-re" to="003d4-0"/>
<connection from="49209-4-re" to="69f96-0"/>
<connection from="49209-4-re" to="003d4-0-re"/>
<connection from="49209-4-re" to="69f96-0-re"/>
<!-- Point bdb20 d9871aa8-37da-479f-bdfc-5996c35bdb20 -->
<connection from="8f410-0" to="904be-0"/>
<connection from="8f410-0" to="904be-0-re"/>
<connection from="8f410-0-re" to="904be-0"/>
<connection from="8f410-0-re" to="904be-0-re"/>
<connection from="003d4-4" to="904be-0"/>
<connection from="003d4-4" to="904be-0-re"/>
<connection from="003d4-4-re" to="904be-0"/>
<connection from="003d4-4-re" to="904be-0-re"/>
<connection from="904be-0" to="8f410-0"/>
<connection from="904be-0" to="003d4-4"/>
<connection from="904be-0" to="8f410-0-re"/>
<connection from="904be-0" to="003d4-4-re"/>
<connection from="904be-0-re" to="8f410-0"/>
<connection from="904be-0-re" to="003d4-4"/>
<connection from="904be-0-re" to="8f410-0-re"/>
<connection from="904be-0-re" to="003d4-4-re"/>
<!-- Point 9f445 20f3ffc5-c83f-4ab9-8902-9a7b80d9f445 -->
<connection from="904be-4" to="b8be5-0"/>
<connection from="904be-4" to="b8be5-0-re"/>
<connection from="904be-4-re" to="b8be5-0"/>
<connection from="904be-4-re" to="b8be5-0-re"/>
<connection from="30c8a-0" to="b8be5-0"/>
<connection from="30c8a-0" to="b8be5-0-re"/>
<connection from="30c8a-0-re" to="b8be5-0"/>
<connection from="30c8a-0-re" to="b8be5-0-re"/>
<connection from="b8be5-0" to="904be-4"/>
<connection from="b8be5-0" to="30c8a-0"/>
<connection from="b8be5-0" to="904be-4-re"/>
<connection from="b8be5-0" to="30c8a-0-re"/>
<connection from="b8be5-0-re" to="904be-4"/>
<connection from="b8be5-0-re" to="30c8a-0"/>
<connection from="b8be5-0-re" to="904be-4-re"/>
<connection from="b8be5-0-re" to="30c8a-0-re"/>
<!-- Point 34db9 a129f94e-44d1-44a2-a426-1e9dae434db9 -->
<connection from="7177d-0" to="54e06-0"/>
<connection from="7177d-0" to="54e06-0-re"/>
<connection from="7177d-0-re" to="54e06-0"/>
<connection from="7177d-0-re" to="54e06-0-re"/>
<connection from="bee3e-0" to="54e06-0"/>
<connection from="bee3e-0" to="54e06-0-re"/>
<connection from="bee3e-0-re" to="54e06-0"/>
<connection from="bee3e-0-re" to="54e06-0-re"/>
<connection from="54e06-0" to="7177d-0"/>
<connection from="54e06-0" to="bee3e-0"/>
<connection from="54e06-0" to="7177d-0-re"/>
<connection from="54e06-0" to="bee3e-0-re"/>
<connection from="54e06-0-re" to="7177d-0"/>
<connection from="54e06-0-re" to="bee3e-0"/>
<connection from="54e06-0-re" to="7177d-0-re"/>
<connection from="54e06-0-re" to="bee3e-0-re"/>
<!-- Point 79691 ab05fe0e-e9be-416d-98f1-b5edb2d79691 -->
<connection from="7177d-4" to="45921-0"/>
<connection from="7177d-4" to="45921-0-re"/>
<connection from="7177d-4-re" to="45921-0"/>
<connection from="7177d-4-re" to="45921-0-re"/>
<connection from="8eea4-0" to="45921-0"/>
<connection from="8eea4-0" to="45921-0-re"/>
<connection from="8eea4-0-re" to="45921-0"/>
<connection from="8eea4-0-re" to="45921-0-re"/>
<connection from="45921-0" to="7177d-4"/>
<connection from="45921-0" to="8eea4-0"/>
<connection from="45921-0" to="7177d-4-re"/>
<connection from="45921-0" to="8eea4-0-re"/>
<connection from="45921-0-re" to="7177d-4"/>
<connection from="45921-0-re" to="8eea4-0"/>
<connection from="45921-0-re" to="7177d-4-re"/>
<connection from="45921-0-re" to="8eea4-0-re"/>
<!-- Point 3e946 715ea24d-6e8a-4457-8543-53020e23e946 -->
<connection from="63345-4" to="45921-0"/>
<connection from="63345-4" to="45921-0-re"/>
<connection from="63345-4-re" to="45921-0"/>
<connection from="63345-4-re" to="45921-0-re"/>
<connection from="a7e78-0" to="45921-0"/>
<connection from="a7e78-0" to="45921-0-re"/>
<connection from="a7e78-0-re" to="45921-0"/>
<connection from="a7e78-0-re" to="45921-0-re"/>
<connection from="45921-0" to="63345-4"/>
<connection from="45921-0" to="a7e78-0"/>
<connection from="45921-0" to="63345-4-re"/>
<connection from="45921-0" to="a7e78-0-re"/>
<connection from="45921-0-re" to="63345-4"/>
<connection from="45921-0-re" to="a7e78-0"/>
<connection from="45921-0-re" to="63345-4-re"/>
<connection from="45921-0-re" to="a7e78-0-re"/>
<!-- Point b49fb ff4d73e9-a86b-4c24-863c-22b4428b49fb -->
<connection from="613bf-0" to="a7e78-0"/>
<connection from="613bf-0" to="a7e78-0-re"/>
<connection from="613bf-0-re" to="a7e78-0"/>
<connection from="613bf-0-re" to="a7e78-0-re"/>
<connection from="05113-0" to="a7e78-0"/>
<connection from="05113-0" to="a7e78-0-re"/>
<connection from="05113-0-re" to="a7e78-0"/>
<connection from="05113-0-re" to="a7e78-0-re"/>
<connection from="a7e78-0" to="613bf-0"/>
<connection from="a7e78-0" to="05113-0"/>
<connection from="a7e78-0" to="613bf-0-re"/>
<connection from="a7e78-0" to="05113-0-re"/>
<connection from="a7e78-0-re" to="613bf-0"/>
<connection from="a7e78-0-re" to="05113-0"/>
<connection from="a7e78-0-re" to="613bf-0-re"/>
<connection from="a7e78-0-re" to="05113-0-re"/>
<!-- Point 066ad 08bf08a7-02b7-4052-bf19-725a8a4066ad -->
<connection from="ffa5d-4" to="fb9ab-0"/>
<connection from="ffa5d-4" to="fb9ab-0-re"/>
<connection from="ffa5d-4-re" to="fb9ab-0"/>
<connection from="ffa5d-4-re" to="fb9ab-0-re"/>
<connection from="90288-0" to="fb9ab-0"/>
<connection from="90288-0" to="fb9ab-0-re"/>
<connection from="90288-0-re" to="fb9ab-0"/>
<connection from="90288-0-re" to="fb9ab-0-re"/>
<connection from="fb9ab-0" to="ffa5d-4"/>
<connection from="fb9ab-0" to="90288-0"/>
<connection from="fb9ab-0" to="ffa5d-4-re"/>
<connection from="fb9ab-0" to="90288-0-re"/>
<connection from="fb9ab-0-re" to="ffa5d-4"/>
<connection from="fb9ab-0-re" to="90288-0"/>
<connection from="fb9ab-0-re" to="ffa5d-4-re"/>
<connection from="fb9ab-0-re" to="90288-0-re"/>
<!-- Point 2ebb1 30c1a05a-6ad3-4de9-8e5e-9c130ee2ebb1 -->
<connection from="91e09-0" to="fb9ab-0"/>
<connection from="91e09-0" to="fb9ab-0-re"/>
<connection from="91e09-0-re" to="fb9ab-0"/>
<connection from="91e09-0-re" to="fb9ab-0-re"/>
<connection from="24fef-4" to="fb9ab-0"/>
<connection from="24fef-4" to="fb9ab-0-re"/>
<connection from="24fef-4-re" to="fb9ab-0"/>
<connection from="24fef-4-re" to="fb9ab-0-re"/>
<connection from="fb9ab-0" to="91e09-0"/>
<connection from="fb9ab-0" to="24fef-4"/>
<connection from="fb9ab-0" to="91e09-0-re"/>
<connection from="fb9ab-0" to="24fef-4-re"/>
<connection from="fb9ab-0-re" to="91e09-0"/>
<connection from="fb9ab-0-re" to="24fef-4"/>
<connection from="fb9ab-0-re" to="91e09-0-re"/>
<connection from="fb9ab-0-re" to="24fef-4-re"/>
<!-- Point 4eedd b19c64f9-f582-4b4a-ad78-177d78a4eedd -->
<connection from="b975c-0" to="3bcde-0"/>
<connection from="b975c-0" to="3bcde-0-re"/>
<connection from="b975c-0-re" to="3bcde-0"/>
<connection from="b975c-0-re" to="3bcde-0-re"/>
<connection from="6df8f-0" to="3bcde-0"/>
<connection from="6df8f-0" to="3bcde-0-re"/>
<connection from="6df8f-0-re" to="3bcde-0"/>
<connection from="6df8f-0-re" to="3bcde-0-re"/>
<connection from="3bcde-0" to="b975c-0"/>
<connection from="3bcde-0" to="6df8f-0"/>
<connection from="3bcde-0" to="b975c-0-re"/>
<connection from="3bcde-0" to="6df8f-0-re"/>
<connection from="3bcde-0-re" to="b975c-0"/>
<connection from="3bcde-0-re" to="6df8f-0"/>
<connection from="3bcde-0-re" to="b975c-0-re"/>
<connection from="3bcde-0-re" to="6df8f-0-re"/>
<!-- Point ebaeb 6a1c07df-fecb-46f7-846f-7a3f140ebaeb -->
<connection from="b975c-4" to="fa3e6-0"/>
<connection from="b975c-4" to="fa3e6-0-re"/>
<connection from="b975c-4-re" to="fa3e6-0"/>
<connection from="b975c-4-re" to="fa3e6-0-re"/>
<connection from="9f13e-0" to="fa3e6-0"/>
<connection from="9f13e-0" to="fa3e6-0-re"/>
<connection from="9f13e-0-re" to="fa3e6-0"/>