<?xml version="1.0" encoding="UTF-8"?>

<!-- generated on 2023-05-11 11:09:30 by Eclipse SUMO netedit Version 1.15.0
-->

<additional xmlns:xsi="http://www.w3.org/2001/XMLSchema-instance" xsi:noNamespaceSchemaLocation="http://sumo.dlr.de/xsd/additional_file.xsd">
    <!-- StoppingPlaces -->
    <busStop id="bs_0" lane="bcec1-1_0" startPos="496.28" endPos="596.28"/>
    <busStop id="bs_1" lane="e77a7-1_0" startPos="735.35" endPos="835.35"/>
    <busStop id="bs_2" lane="3a195-1_0" startPos="205.20" endPos="305.20"/>
    <busStop id="bs_3" lane="6c2c9-1_0" startPos="1261.02" endPos="1361.02"/>
    <busStop id="bs_4" lane="a60ab-1_0" startPos="150.48" endPos="250.48"/>
    <busStop id="bs_5" lane="42246-9_0" startPos="767.86" endPos="867.86"/>
    <busStop id="bs_6" lane="2ccaa-2_0" startPos="850.05" endPos="950.05"/>
</additional>
