<?xml version="1.0" encoding="UTF-8"?>
<routes xmlns:xsi="http://www.w3.org/2001/XMLSchema-instance" xsi:noNamespaceSchemaLocation="http://sumo.dlr.de/xsd/routes_file.xsd">
	<route edges="0c07e-1 0c07e-2 54b9d-2-re 54b9d-1-re" color="39,154,77" id="route_A245794E-112C-40A9-956A-4B549FE0C07E-KM-321.5762856547864-IN-5682C982-B9AA-496A-BDF5-9FB7FBE54B9D-KM-25-GEGEN"/>
	<route edges="0c07e-1 0c07e-2 271fb-2-re 271fb-1-re" color="31,166,215" id="route_A245794E-112C-40A9-956A-4B549FE0C07E-KM-321.5762856547864-IN-EFA65A06-D777-441F-8ED5-4139640271FB-KM-25-GEGEN"/>
	<route edges="0c07e-1-re 0c07e-0-re aea0c-0 aea0c-1" color="31,165,26" id="route_A245794E-112C-40A9-956A-4B549FE0C07E-KM-25-GEGEN-4CF1BF60-E364-4812-AAE2-FFF6F32AEA0C-KM-852.2588211144425-IN"/>
	<route edges="0c07e-1-re 0c07e-0-re 4a178-0 4a178-1" color="14,19,134" id="route_A245794E-112C-40A9-956A-4B549FE0C07E-KM-25-GEGEN-D1B4883E-5CAD-4D75-9D83-8EF0AFF4A178-KM-165.5616561823125-IN"/>
	<route edges="4a178-1 4a178-2 50b1b-0 50b1b-1" color="216,174,9" id="route_D1B4883E-5CAD-4D75-9D83-8EF0AFF4A178-KM-165.5616561823125-IN-FF5D2CCC-5934-4C98-9D85-688D0A850B1B-KM-788.1457216628645-IN"/>
	<route edges="4a178-1 4a178-2 03df7-0 03df7-1" color="17,58,44" id="route_D1B4883E-5CAD-4D75-9D83-8EF0AFF4A178-KM-165.5616561823125-IN-EC58409D-D2BF-4739-82C8-EC45FB303DF7-KM-238.52550007798908-IN"/>
	<route edges="4a178-1-re 4a178-0-re 0c07e-0 0c07e-1" color="216,27,224" id="route_D1B4883E-5CAD-4D75-9D83-8EF0AFF4A178-KM-25-GEGEN-A245794E-112C-40A9-956A-4B549FE0C07E-KM-321.5762856547864-IN"/>
	<route edges="aea0c-1-re aea0c-0-re 0c07e-0 0c07e-1" color="248,179,159" id="route_4CF1BF60-E364-4812-AAE2-FFF6F32AEA0C-KM-25-GEGEN-A245794E-112C-40A9-956A-4B549FE0C07E-KM-321.5762856547864-IN"/>
	<route edges="50b1b-1 50b1b-2 2fb5c-0 2fb5c-1" color="38,66,23" id="route_FF5D2CCC-5934-4C98-9D85-688D0A850B1B-KM-788.1457216628645-IN-DAF4F78C-EFEF-4369-8422-65AA2AA2FB5C-KM-169.7673894741766-IN"/>
	<route edges="50b1b-1-re 50b1b-0-re 4a178-2-re 4a178-1-re" color="109,13,123" id="route_FF5D2CCC-5934-4C98-9D85-688D0A850B1B-KM-25-GEGEN-D1B4883E-5CAD-4D75-9D83-8EF0AFF4A178-KM-25-GEGEN"/>
	<route edges="03df7-1 03df7-2 37e0d-0 3bdd8-2-re 3bdd8-1-re" color="246,231,50" id="route_EC58409D-D2BF-4739-82C8-EC45FB303DF7-KM-238.52550007798908-IN-8651E624-AA9A-4785-B63D-06F03C93BDD8-KM-25-GEGEN"/>
	<route edges="03df7-1 03df7-2 37e0d-0 03b38-2-re 03b38-1-re" color="22,237,106" id="route_EC58409D-D2BF-4739-82C8-EC45FB303DF7-KM-238.52550007798908-IN-A1FC098A-A3E1-41F5-9C30-6D2D5AE03B38-KM-25-GEGEN"/>
	<route edges="03df7-1-re 03df7-0-re 4a178-2-re 4a178-1-re" color="189,198,132" id="route_EC58409D-D2BF-4739-82C8-EC45FB303DF7-KM-25-GEGEN-D1B4883E-5CAD-4D75-9D83-8EF0AFF4A178-KM-25-GEGEN"/>
	<route edges="2fb5c-1 2fb5c-2 1d191-0 1d191-1" color="73,212,54" id="route_DAF4F78C-EFEF-4369-8422-65AA2AA2FB5C-KM-169.7673894741766-IN-810470E8-FC76-4307-BA48-1D916E91D191-KM-684.7733628877847-IN"/>
	<route edges="2fb5c-1-re 2fb5c-0-re 50b1b-2-re 50b1b-1-re" color="251,161,153" id="route_DAF4F78C-EFEF-4369-8422-65AA2AA2FB5C-KM-25-GEGEN-FF5D2CCC-5934-4C98-9D85-688D0A850B1B-KM-25-GEGEN"/>
	<route edges="0e173-1-re 0e173-0-re 2fb5c-0 2fb5c-1" color="104,233,247" id="route_1DC18653-4164-4D1B-83EC-AFB4A030E173-KM-25-GEGEN-DAF4F78C-EFEF-4369-8422-65AA2AA2FB5C-KM-169.7673894741766-IN"/>
	<route edges="1d191-1 1d191-2 a0b4b-0-re d14e0-0 d14e0-1" color="154,205,182" id="route_810470E8-FC76-4307-BA48-1D916E91D191-KM-684.7733628877847-IN-FA125895-9D0C-4B6B-AFB3-8C68CC3D14E0-KM-1671.7895552905081-IN"/>
	<route edges="1d191-1 1d191-2 a0b4b-0-re d33ab-0 d33ab-1" color="88,119,130" id="route_810470E8-FC76-4307-BA48-1D916E91D191-KM-684.7733628877847-IN-2D8994B9-0BCE-4D8A-B353-D0F1136D33AB-KM-1452.8979874733736-IN"/>
	<route edges="1d191-1 1d191-2 00b47-0 00b47-1" color="227,175,252" id="route_810470E8-FC76-4307-BA48-1D916E91D191-KM-684.7733628877847-IN-47486AAE-E18A-4605-AC96-FA1158900B47-KM-268.8995167296298-IN"/>
	<route edges="1d191-1-re 1d191-0-re 2fb5c-2-re 2fb5c-1-re" color="171,189,205" id="route_810470E8-FC76-4307-BA48-1D916E91D191-KM-25-GEGEN-DAF4F78C-EFEF-4369-8422-65AA2AA2FB5C-KM-25-GEGEN"/>
	<route edges="4a20c-1-re 4a20c-0-re 1d191-0 1d191-1" color="91,78,46" id="route_08BB0881-FBE8-4C58-A599-178C9804A20C-KM-25-GEGEN-810470E8-FC76-4307-BA48-1D916E91D191-KM-684.7733628877847-IN"/>
	<route edges="79b5a-1 79b5a-2 1bf8d-0 1bf8d-1" color="68,32,138" id="route_C05F1553-3B63-4906-A39F-270D9AC79B5A-KM-254.45431792963808-IN-C026829B-BA28-4550-A15F-F16ADD51BF8D-KM-1908.0650690078241-IN"/>
	<route edges="79b5a-1-re 79b5a-0-re 2bb59-0 c0f0c-2-re c0f0c-1-re" color="5,197,86" id="route_C05F1553-3B63-4906-A39F-270D9AC79B5A-KM-25-GEGEN-7BCDD4D9-C206-43AC-9BD8-507E4E5C0F0C-KM-25-GEGEN"/>
	<route edges="79b5a-1-re 79b5a-0-re 2bb59-0 d14e0-2-re d14e0-1-re" color="13,42,0" id="route_C05F1553-3B63-4906-A39F-270D9AC79B5A-KM-25-GEGEN-FA125895-9D0C-4B6B-AFB3-8C68CC3D14E0-KM-25-GEGEN"/>
	<route edges="ed4f0-1 ed4f0-2 ed4f0-3" color="98,99,15" id="route_5157E5D8-5A28-4FDC-9EA0-CD4A77EED4F0-KM-1000-IN-5157E5D8-5A28-4FDC-9EA0-CD4A77EED4F0-KM-2000-IN"/>
	<route edges="ed4f0-3 ed4f0-4 ed4f0-5" color="232,196,216" id="route_5157E5D8-5A28-4FDC-9EA0-CD4A77EED4F0-KM-2000-IN-5157E5D8-5A28-4FDC-9EA0-CD4A77EED4F0-KM-3000-IN"/>
	<route edges="ed4f0-5 ed4f0-6 ed4f0-7" color="202,20,165" id="route_5157E5D8-5A28-4FDC-9EA0-CD4A77EED4F0-KM-3000-IN-5157E5D8-5A28-4FDC-9EA0-CD4A77EED4F0-KM-4000-IN"/>
	<route edges="ed4f0-7 ed4f0-8 ed4f0-9" color="191,114,97" id="route_5157E5D8-5A28-4FDC-9EA0-CD4A77EED4F0-KM-4000-IN-5157E5D8-5A28-4FDC-9EA0-CD4A77EED4F0-KM-5560.253303703657-IN"/>
	<route edges="ed4f0-9 ed4f0-10 58847-5-re 58847-4-re" color="150,158,227" id="route_5157E5D8-5A28-4FDC-9EA0-CD4A77EED4F0-KM-5560.253303703657-IN-0CDAF329-5FFE-463D-8DA5-4526EC358847-KM-1001-GEGEN"/>
	<route edges="ed4f0-9 ed4f0-10 ecefc-2-re ecefc-1-re" color="222,130,222" id="route_5157E5D8-5A28-4FDC-9EA0-CD4A77EED4F0-KM-5560.253303703657-IN-22E76D3E-DADE-4BF2-BF90-5BEC3DFECEFC-KM-25-GEGEN"/>
	<route edges="ed4f0-9-re ed4f0-8-re ed4f0-7-re" color="165,76,150" id="route_5157E5D8-5A28-4FDC-9EA0-CD4A77EED4F0-KM-4000-GEGEN-5157E5D8-5A28-4FDC-9EA0-CD4A77EED4F0-KM-3000-GEGEN"/>
	<route edges="ed4f0-7-re ed4f0-6-re ed4f0-5-re" color="37,243,206" id="route_5157E5D8-5A28-4FDC-9EA0-CD4A77EED4F0-KM-3000-GEGEN-5157E5D8-5A28-4FDC-9EA0-CD4A77EED4F0-KM-2000-GEGEN"/>
	<route edges="ed4f0-5-re ed4f0-4-re ed4f0-3-re" color="206,127,229" id="route_5157E5D8-5A28-4FDC-9EA0-CD4A77EED4F0-KM-2000-GEGEN-5157E5D8-5A28-4FDC-9EA0-CD4A77EED4F0-KM-1000-GEGEN"/>
	<route edges="ed4f0-3-re ed4f0-2-re ed4f0-1-re" color="248,241,67" id="route_5157E5D8-5A28-4FDC-9EA0-CD4A77EED4F0-KM-1000-GEGEN-5157E5D8-5A28-4FDC-9EA0-CD4A77EED4F0-KM-25-GEGEN"/>
	<route edges="ed4f0-1-re ed4f0-0-re 2bb59-0 c0f0c-2-re c0f0c-1-re" color="54,14,77" id="route_5157E5D8-5A28-4FDC-9EA0-CD4A77EED4F0-KM-25-GEGEN-7BCDD4D9-C206-43AC-9BD8-507E4E5C0F0C-KM-25-GEGEN"/>
	<route edges="ed4f0-1-re ed4f0-0-re 2bb59-0 d14e0-2-re d14e0-1-re" color="86,114,169" id="route_5157E5D8-5A28-4FDC-9EA0-CD4A77EED4F0-KM-25-GEGEN-FA125895-9D0C-4B6B-AFB3-8C68CC3D14E0-KM-25-GEGEN"/>
	<route edges="a6fcb-1 a6fcb-2 83ba6-0-re 5dbf1-2-re 5dbf1-1-re" color="78,131,158" id="route_ABF3B1E3-E04C-4F50-926D-81E3A37A6FCB-KM-463.81731618508263-IN-34F29882-02E2-4939-B8F6-F1413015DBF1-KM-25-GEGEN"/>
	<route edges="a6fcb-1 a6fcb-2 83ba6-0-re d33ab-2-re d33ab-1-re" color="255,172,98" id="route_ABF3B1E3-E04C-4F50-926D-81E3A37A6FCB-KM-463.81731618508263-IN-2D8994B9-0BCE-4D8A-B353-D0F1136D33AB-KM-25-GEGEN"/>
	<route edges="a6fcb-1-re a6fcb-0-re 1bf8d-0 1bf8d-1" color="4,123,128" id="route_ABF3B1E3-E04C-4F50-926D-81E3A37A6FCB-KM-25-GEGEN-C026829B-BA28-4550-A15F-F16ADD51BF8D-KM-1908.0650690078241-IN"/>
	<route edges="1bf8d-1 1bf8d-2 3252c-0 3252c-1" color="205,177,214" id="route_C026829B-BA28-4550-A15F-F16ADD51BF8D-KM-1908.0650690078241-IN-6B7A58AC-8DFE-410E-B98E-D4545F43252C-KM-164.87032984724672-IN"/>
	<route edges="1bf8d-1 1bf8d-2 c7f4f-0 cc924-0 113d8-0-re 8ad00-0 1fd96-0 1fd96-1" color="233,182,101" id="route_C026829B-BA28-4550-A15F-F16ADD51BF8D-KM-1908.0650690078241-IN-C41E73B5-C0F7-4182-9CB8-B0E13731FD96-KM-181.66400492600528-IN"/>
	<route edges="1bf8d-1 1bf8d-2 c7f4f-0 cc924-0 113d8-0-re 8ad00-0 9a693-0 9a693-1" color="6,77,91" id="route_C026829B-BA28-4550-A15F-F16ADD51BF8D-KM-1908.0650690078241-IN-D92C683E-8EC6-4C5B-8718-300E0A79A693-KM-340.8087986779541-IN"/>
	<route edges="1bf8d-1 1bf8d-2 c7f4f-0 cc924-0 25833-0 25833-1" color="187,146,173" id="route_C026829B-BA28-4550-A15F-F16ADD51BF8D-KM-1908.0650690078241-IN-2AA8C848-1975-4E34-A4B5-8A8B35B25833-KM-631.7357322698663-IN"/>
	<route edges="1bf8d-1-re 1bf8d-0-re a6fcb-0 a6fcb-1" color="60,125,146" id="route_C026829B-BA28-4550-A15F-F16ADD51BF8D-KM-25-GEGEN-ABF3B1E3-E04C-4F50-926D-81E3A37A6FCB-KM-463.81731618508263-IN"/>
	<route edges="1bf8d-1-re 1bf8d-0-re 79b5a-2-re 79b5a-1-re" color="29,108,140" id="route_C026829B-BA28-4550-A15F-F16ADD51BF8D-KM-25-GEGEN-C05F1553-3B63-4906-A39F-270D9AC79B5A-KM-25-GEGEN"/>
	<route edges="e22c1-1 e22c1-2 e22c1-3" color="255,2,117" id="route_AF7CC9ED-3DA1-4385-A774-2C902DCE22C1-KM-1000-IN-AF7CC9ED-3DA1-4385-A774-2C902DCE22C1-KM-2968.0134948223827-IN"/>
	<route edges="e22c1-3 e22c1-4 f3db4-0 f3db4-1" color="149,247,155" id="route_AF7CC9ED-3DA1-4385-A774-2C902DCE22C1-KM-2968.0134948223827-IN-AB97BFC7-7498-4E7C-A853-90A22EFF3DB4-KM-1453.541904487744-IN"/>
	<route edges="e22c1-3-re e22c1-2-re e22c1-1-re" color="163,150,62" id="route_AF7CC9ED-3DA1-4385-A774-2C902DCE22C1-KM-1000-GEGEN-AF7CC9ED-3DA1-4385-A774-2C902DCE22C1-KM-25-GEGEN"/>
	<route edges="e22c1-1-re e22c1-0-re 136a5-0 9a693-2-re 9a693-1-re" color="128,211,136" id="route_AF7CC9ED-3DA1-4385-A774-2C902DCE22C1-KM-25-GEGEN-D92C683E-8EC6-4C5B-8718-300E0A79A693-KM-25-GEGEN"/>
	<route edges="e22c1-1-re e22c1-0-re 136a5-0 713ce-0 7c65a-0-re b23e4-0 1fd96-2-re 1fd96-1-re" color="120,18,241" id="route_AF7CC9ED-3DA1-4385-A774-2C902DCE22C1-KM-25-GEGEN-C41E73B5-C0F7-4182-9CB8-B0E13731FD96-KM-25-GEGEN"/>
	<route edges="e22c1-1-re e22c1-0-re 136a5-0 713ce-0 7c65a-0-re b23e4-0 dc35d-0 93b06-0 93b06-1" color="48,153,195" id="route_AF7CC9ED-3DA1-4385-A774-2C902DCE22C1-KM-25-GEGEN-E42CBEF1-A246-46CA-A172-94CBE6993B06-KM-893.3775715190525-IN"/>
	<route edges="e22c1-1-re e22c1-0-re 136a5-0 713ce-0 7c65a-0-re b23e4-0 dc35d-0 ee7aa-0 caa47-2-re caa47-1-re" color="85,213,199" id="route_AF7CC9ED-3DA1-4385-A774-2C902DCE22C1-KM-25-GEGEN-2485EEE7-12AD-4C1F-BE7F-B7268CACAA47-KM-25-GEGEN"/>
	<route edges="e22c1-1-re e22c1-0-re 136a5-0 713ce-0 7c65a-0-re b23e4-0 dc35d-0 ee7aa-0 322db-0 2de6d-2-re 2de6d-1-re" color="111,189,58" id="route_AF7CC9ED-3DA1-4385-A774-2C902DCE22C1-KM-25-GEGEN-463795F9-C77C-4C4F-8FC6-1B6D4A52DE6D-KM-25-GEGEN"/>
	<route edges="c8b3b-1 c8b3b-2 640ed-2-re 640ed-1-re" color="26,63,202" id="route_F94E8E1B-D59A-4472-8CFE-EA56BA0C8B3B-KM-96.47358751756049-IN-B8D41B70-11A2-49BD-9C67-7420779640ED-KM-25-GEGEN"/>
	<route edges="c8b3b-1 c8b3b-2 94339-0 94339-1" color="144,43,110" id="route_F94E8E1B-D59A-4472-8CFE-EA56BA0C8B3B-KM-96.47358751756049-IN-C7FCC39C-EFC6-45AD-A1D1-2D7D63494339-KM-914.6100386400316-IN"/>
	<route edges="c8b3b-1-re c8b3b-0-re 81494-0 81494-1" color="172,247,162" id="route_F94E8E1B-D59A-4472-8CFE-EA56BA0C8B3B-KM-25-GEGEN-C92CDF4E-BC6F-4D87-BBB3-38557B281494-KM-196.352947606197-IN"/>
	<route edges="81494-1 81494-2 48a5e-2-re 48a5e-1-re" color="220,214,213" id="route_C92CDF4E-BC6F-4D87-BBB3-38557B281494-KM-196.352947606197-IN-3D96E2A8-41F0-4A03-85D1-06BA1F548A5E-KM-25-GEGEN"/>
	<route edges="81494-1 81494-2 19cfa-2-re 19cfa-1-re" color="65,247,120" id="route_C92CDF4E-BC6F-4D87-BBB3-38557B281494-KM-196.352947606197-IN-0BF2C645-D74F-4238-B219-D17FE3A19CFA-KM-25-GEGEN"/>
	<route edges="81494-1-re 81494-0-re c8b3b-0 c8b3b-1" color="234,129,112" id="route_C92CDF4E-BC6F-4D87-BBB3-38557B281494-KM-25-GEGEN-F94E8E1B-D59A-4472-8CFE-EA56BA0C8B3B-KM-96.47358751756049-IN"/>
	<route edges="81494-1-re 81494-0-re 659b0-0 8a61e-0 5e6f2-0 5e6f2-1" color="221,169,240" id="route_C92CDF4E-BC6F-4D87-BBB3-38557B281494-KM-25-GEGEN-CCA75ED1-D28A-468E-BEB6-13606B85E6F2-KM-103.04561740430805-IN"/>
	<route edges="81494-1-re 81494-0-re 659b0-0 8a61e-0 cca63-2-re cca63-1-re" color="73,15,178" id="route_C92CDF4E-BC6F-4D87-BBB3-38557B281494-KM-25-GEGEN-250B34C9-92A8-4B8E-950D-3D85594CCA63-KM-25-GEGEN"/>
	<route edges="81494-1-re 81494-0-re 659b0-0 9193b-0 9193b-1" color="200,214,176" id="route_C92CDF4E-BC6F-4D87-BBB3-38557B281494-KM-25-GEGEN-C1E4E6D0-CBA7-48E2-B7D8-E340D409193B-KM-1077.9134160895494-IN"/>
	<route edges="9193b-1 9193b-2 2a019-0 3c124-0 709a1-0 709a1-1" color="44,183,110" id="route_C1E4E6D0-CBA7-48E2-B7D8-E340D409193B-KM-1077.9134160895494-IN-D3C238B1-3B89-4415-8B4D-8216AEC709A1-KM-455.0663329602517-IN"/>
	<route edges="9193b-1-re 9193b-0-re 659b0-0-re 81494-0 81494-1" color="178,91,132" id="route_C1E4E6D0-CBA7-48E2-B7D8-E340D409193B-KM-25-GEGEN-C92CDF4E-BC6F-4D87-BBB3-38557B281494-KM-196.352947606197-IN"/>
	<route edges="cca63-1 cca63-2 8a61e-0-re 659b0-0-re 81494-0 81494-1" color="162,158,126" id="route_250B34C9-92A8-4B8E-950D-3D85594CCA63-KM-1049.2555641663412-IN-C92CDF4E-BC6F-4D87-BBB3-38557B281494-KM-196.352947606197-IN"/>
	<route edges="cca63-1-re cca63-0-re 3c124-0 709a1-0 709a1-1" color="85,237,85" id="route_250B34C9-92A8-4B8E-950D-3D85594CCA63-KM-25-GEGEN-D3C238B1-3B89-4415-8B4D-8216AEC709A1-KM-455.0663329602517-IN"/>
	<route edges="709a1-1 709a1-2 7beea-0 7beea-1" color="0,96,140" id="route_D3C238B1-3B89-4415-8B4D-8216AEC709A1-KM-455.0663329602517-IN-5CB84B0A-BDDC-4CDD-A5F5-0DE1A067BEEA-KM-90.49227411094549-IN"/>
	<route edges="709a1-1 709a1-2 96ded-0 96ded-1" color="214,81,161" id="route_D3C238B1-3B89-4415-8B4D-8216AEC709A1-KM-455.0663329602517-IN-841E02F3-64A9-4541-B53B-4A561F596DED-KM-79.28485462572691-IN"/>
	<route edges="709a1-1-re 709a1-0-re 3c124-0-re 2a019-0-re 6b90d-0 c066a-2-re c066a-1-re" color="231,68,48" id="route_D3C238B1-3B89-4415-8B4D-8216AEC709A1-KM-25-GEGEN-AC12FE39-14FE-41E5-AEC9-EDCF517C066A-KM-25-GEGEN"/>
	<route edges="709a1-1-re 709a1-0-re 3c124-0-re 2a019-0-re 9193b-2-re 9193b-1-re" color="121,70,74" id="route_D3C238B1-3B89-4415-8B4D-8216AEC709A1-KM-25-GEGEN-C1E4E6D0-CBA7-48E2-B7D8-E340D409193B-KM-25-GEGEN"/>
	<route edges="709a1-1-re 709a1-0-re 3c124-0-re cca63-0 cca63-1" color="217,192,109" id="route_D3C238B1-3B89-4415-8B4D-8216AEC709A1-KM-25-GEGEN-250B34C9-92A8-4B8E-950D-3D85594CCA63-KM-1049.2555641663412-IN"/>
	<route edges="709a1-1-re 709a1-0-re d9713-0 13142-2-re 13142-1-re" color="12,214,78" id="route_D3C238B1-3B89-4415-8B4D-8216AEC709A1-KM-25-GEGEN-36539E49-2D61-4687-A65F-681C3AF13142-KM-25-GEGEN"/>
	<route edges="709a1-1-re 709a1-0-re d9713-0 ccb8e-0 0ec04-2-re 0ec04-1-re" color="7,152,23" id="route_D3C238B1-3B89-4415-8B4D-8216AEC709A1-KM-25-GEGEN-456E9934-61E4-442E-B697-C505B4A0EC04-KM-25-GEGEN"/>
	<route edges="709a1-1-re 709a1-0-re d9713-0 ccb8e-0 1281b-0-re 74ea3-0 94339-2-re 94339-1-re" color="167,16,213" id="route_D3C238B1-3B89-4415-8B4D-8216AEC709A1-KM-25-GEGEN-C7FCC39C-EFC6-45AD-A1D1-2D7D63494339-KM-25-GEGEN"/>
	<route edges="709a1-1-re 709a1-0-re d9713-0 ccb8e-0 1281b-0-re 74ea3-0 da22a-2-re da22a-1-re" color="138,25,68" id="route_D3C238B1-3B89-4415-8B4D-8216AEC709A1-KM-25-GEGEN-560B7D91-1BF0-48E3-9286-E555E0DDA22A-KM-25-GEGEN"/>
	<route edges="96ded-1 96ded-2 18c7a-0 18c7a-1" color="152,234,24" id="route_841E02F3-64A9-4541-B53B-4A561F596DED-KM-79.28485462572691-IN-1D7C7C08-D60C-4F5B-8D28-57FE71718C7A-KM-984.5542787261779-IN"/>
	<route edges="96ded-1-re 96ded-0-re 709a1-2-re 709a1-1-re" color="56,58,149" id="route_841E02F3-64A9-4541-B53B-4A561F596DED-KM-25-GEGEN-D3C238B1-3B89-4415-8B4D-8216AEC709A1-KM-25-GEGEN"/>
	<route edges="7beea-1 7beea-2 162f8-0 162f8-1" color="154,126,246" id="route_5CB84B0A-BDDC-4CDD-A5F5-0DE1A067BEEA-KM-90.49227411094549-IN-BA831012-F241-4D06-8D85-66A872E162F8-KM-973.5630285209269-IN"/>
	<route edges="7beea-1-re 7beea-0-re 709a1-2-re 709a1-1-re" color="227,209,218" id="route_5CB84B0A-BDDC-4CDD-A5F5-0DE1A067BEEA-KM-25-GEGEN-D3C238B1-3B89-4415-8B4D-8216AEC709A1-KM-25-GEGEN"/>
	<route edges="18c7a-1 18c7a-2 cc319-0 cc319-1" color="171,91,161" id="route_1D7C7C08-D60C-4F5B-8D28-57FE71718C7A-KM-984.5542787261779-IN-21378FC4-4EA7-443E-8B94-C89E3E7CC319-KM-81.24463641442591-IN"/>
	<route edges="18c7a-1-re 18c7a-0-re 17785-0 17785-1" color="58,60,67" id="route_1D7C7C08-D60C-4F5B-8D28-57FE71718C7A-KM-25-GEGEN-9DAE5852-8F7D-4627-BC0B-315488317785-KM-101.34410270980774-IN"/>
	<route edges="18c7a-1-re 18c7a-0-re 96ded-2-re 96ded-1-re" color="75,233,93" id="route_1D7C7C08-D60C-4F5B-8D28-57FE71718C7A-KM-25-GEGEN-841E02F3-64A9-4541-B53B-4A561F596DED-KM-25-GEGEN"/>
	<route edges="17785-1 17785-2 6c78f-0 6c78f-1" color="252,225,101" id="route_9DAE5852-8F7D-4627-BC0B-315488317785-KM-101.34410270980774-IN-D9966196-8A34-4EA2-B979-9E9DF606C78F-KM-173.08552154511705-IN"/>
	<route edges="17785-1-re 17785-0-re 18c7a-0 18c7a-1" color="15,187,224" id="route_9DAE5852-8F7D-4627-BC0B-315488317785-KM-25-GEGEN-1D7C7C08-D60C-4F5B-8D28-57FE71718C7A-KM-984.5542787261779-IN"/>
	<route edges="13aa3-0 13aa3-1 13aa3-2" color="55,44,13" id="route_EA1411A9-96E2-4ECA-A4CB-C2635CC13AA3-KM-1-IN-EA1411A9-96E2-4ECA-A4CB-C2635CC13AA3-KM-1246.872029481161-IN"/>
	<route edges="13aa3-2 13aa3-3 faa9a-0 faa9a-1" color="17,162,27" id="route_EA1411A9-96E2-4ECA-A4CB-C2635CC13AA3-KM-1246.872029481161-IN-F793A2E7-BAF1-4A30-B5E1-452F8E7FAA9A-KM-195.21324611100448-IN"/>
	<route edges="86ae0-1 86ae0-2 c6a03-0 54b9d-0 54b9d-1" color="235,235,107" id="route_E58ABB20-5321-433E-A190-CECADB886AE0-KM-1615.0764173282626-IN-5682C982-B9AA-496A-BDF5-9FB7FBE54B9D-KM-136.72691529462978-IN"/>
	<route edges="86ae0-1 86ae0-2 c6a03-0 fcd0d-0 fcd0d-1" color="236,234,76" id="route_E58ABB20-5321-433E-A190-CECADB886AE0-KM-1615.0764173282626-IN-2B30F947-5D9F-4935-9A10-9AC114CFCD0D-KM-937.1466831358305-IN"/>
	<route edges="86ae0-1-re 86ae0-0-re 68cc4-0 e4ea9-2-re e4ea9-1-re" color="72,214,85" id="route_E58ABB20-5321-433E-A190-CECADB886AE0-KM-25-GEGEN-3A294B3A-477F-462E-BBEF-91F6E36E4EA9-KM-25-GEGEN"/>
	<route edges="86ae0-1-re 86ae0-0-re 68cc4-0 0d7b2-0-re 135ac-2-re 135ac-1-re" color="108,188,225" id="route_E58ABB20-5321-433E-A190-CECADB886AE0-KM-25-GEGEN-3E4D5D60-A2FA-4527-9319-3DAC543135AC-KM-25-GEGEN"/>
	<route edges="1e090-1 1e090-2 1e090-3" color="118,166,56" id="route_319B49BC-277C-4C5D-B31E-0BCCDA31E090-KM-1000-IN-319B49BC-277C-4C5D-B31E-0BCCDA31E090-KM-2000-IN"/>
	<route edges="1e090-3 1e090-4 1e090-5" color="109,35,152" id="route_319B49BC-277C-4C5D-B31E-0BCCDA31E090-KM-2000-IN-319B49BC-277C-4C5D-B31E-0BCCDA31E090-KM-3170.0135601901507-IN"/>
	<route edges="1e090-5 1e090-6 c36d2-0 c36d2-1" color="127,125,179" id="route_319B49BC-277C-4C5D-B31E-0BCCDA31E090-KM-3170.0135601901507-IN-86BFBAE1-2DC6-48FB-AEFB-F00A200C36D2-KM-1145.0075044737318-IN"/>
	<route edges="1e090-5 1e090-6 5ecfb-0 5ecfb-1" color="186,13,10" id="route_319B49BC-277C-4C5D-B31E-0BCCDA31E090-KM-3170.0135601901507-IN-93922835-097B-49EE-8410-9E407DD5ECFB-KM-199.43697602843812-IN"/>
	<route edges="1e090-5-re 1e090-4-re 1e090-3-re" color="246,0,53" id="route_319B49BC-277C-4C5D-B31E-0BCCDA31E090-KM-2000-GEGEN-319B49BC-277C-4C5D-B31E-0BCCDA31E090-KM-1000-GEGEN"/>
	<route edges="1e090-3-re 1e090-2-re 1e090-1-re" color="225,169,29" id="route_319B49BC-277C-4C5D-B31E-0BCCDA31E090-KM-1000-GEGEN-319B49BC-277C-4C5D-B31E-0BCCDA31E090-KM-25-GEGEN"/>
	<route edges="1e090-1-re 1e090-0-re 68cc4-0 e4ea9-2-re e4ea9-1-re" color="194,117,77" id="route_319B49BC-277C-4C5D-B31E-0BCCDA31E090-KM-25-GEGEN-3A294B3A-477F-462E-BBEF-91F6E36E4EA9-KM-25-GEGEN"/>
	<route edges="1e090-1-re 1e090-0-re 68cc4-0 0d7b2-0-re 135ac-2-re 135ac-1-re" color="250,216,207" id="route_319B49BC-277C-4C5D-B31E-0BCCDA31E090-KM-25-GEGEN-3E4D5D60-A2FA-4527-9319-3DAC543135AC-KM-25-GEGEN"/>
	<route edges="9352a-1 9352a-2 ff474-0 ff474-1" color="93,115,176" id="route_323589A5-8978-4422-BCF9-E4081E49352A-KM-152.73211692197054-IN-32D51E84-8251-489F-AE75-D9CF3BCFF474-KM-1000-IN"/>
	<route edges="9352a-1-re 9352a-0-re c6a03-0 54b9d-0 54b9d-1" color="106,46,207" id="route_323589A5-8978-4422-BCF9-E4081E49352A-KM-25-GEGEN-5682C982-B9AA-496A-BDF5-9FB7FBE54B9D-KM-136.72691529462978-IN"/>
	<route edges="9352a-1-re 9352a-0-re c6a03-0 fcd0d-0 fcd0d-1" color="110,46,11" id="route_323589A5-8978-4422-BCF9-E4081E49352A-KM-25-GEGEN-2B30F947-5D9F-4935-9A10-9AC114CFCD0D-KM-937.1466831358305-IN"/>
	<route edges="fcd0d-1 fcd0d-2 37e0d-0 3bdd8-2-re 3bdd8-1-re" color="116,49,181" id="route_2B30F947-5D9F-4935-9A10-9AC114CFCD0D-KM-937.1466831358305-IN-8651E624-AA9A-4785-B63D-06F03C93BDD8-KM-25-GEGEN"/>
	<route edges="fcd0d-1 fcd0d-2 37e0d-0 03b38-2-re 03b38-1-re" color="183,141,155" id="route_2B30F947-5D9F-4935-9A10-9AC114CFCD0D-KM-937.1466831358305-IN-A1FC098A-A3E1-41F5-9C30-6D2D5AE03B38-KM-25-GEGEN"/>
	<route edges="fcd0d-1-re fcd0d-0-re c6a03-0-re 86ae0-2-re 86ae0-1-re" color="148,166,99" id="route_2B30F947-5D9F-4935-9A10-9AC114CFCD0D-KM-25-GEGEN-E58ABB20-5321-433E-A190-CECADB886AE0-KM-25-GEGEN"/>
	<route edges="fcd0d-1-re fcd0d-0-re c6a03-0-re 9352a-0 9352a-1" color="96,68,217" id="route_2B30F947-5D9F-4935-9A10-9AC114CFCD0D-KM-25-GEGEN-323589A5-8978-4422-BCF9-E4081E49352A-KM-152.73211692197054-IN"/>
	<route edges="54b9d-1 54b9d-2 0c07e-2-re 0c07e-1-re" color="207,112,94" id="route_5682C982-B9AA-496A-BDF5-9FB7FBE54B9D-KM-136.72691529462978-IN-A245794E-112C-40A9-956A-4B549FE0C07E-KM-25-GEGEN"/>
	<route edges="54b9d-1-re 54b9d-0-re c6a03-0-re 86ae0-2-re 86ae0-1-re" color="193,253,26" id="route_5682C982-B9AA-496A-BDF5-9FB7FBE54B9D-KM-25-GEGEN-E58ABB20-5321-433E-A190-CECADB886AE0-KM-25-GEGEN"/>
	<route edges="54b9d-1-re 54b9d-0-re c6a03-0-re 9352a-0 9352a-1" color="92,8,157" id="route_5682C982-B9AA-496A-BDF5-9FB7FBE54B9D-KM-25-GEGEN-323589A5-8978-4422-BCF9-E4081E49352A-KM-152.73211692197054-IN"/>
	<route edges="1122e-1 1122e-2 c70a5-4-re c70a5-3-re" color="103,107,241" id="route_86A68A7B-0B23-4EA6-99AA-986692D1122E-KM-848.6990357234663-IN-9BC8CA0F-511B-4BDD-83BD-454EC0EC70A5-KM-1000-GEGEN"/>
	<route edges="1122e-1-re 1122e-0-re 7ce15-0 7ce15-1" color="253,187,15" id="route_86A68A7B-0B23-4EA6-99AA-986692D1122E-KM-25-GEGEN-5D486FAE-C813-4C66-9BD8-4D150C47CE15-KM-1000-IN"/>
	<route edges="7ce15-1 7ce15-2 7ce15-3" color="72,21,242" id="route_5D486FAE-C813-4C66-9BD8-4D150C47CE15-KM-1000-IN-5D486FAE-C813-4C66-9BD8-4D150C47CE15-KM-2000-IN"/>
	<route edges="7ce15-3 7ce15-4 7ce15-5" color="255,62,218" id="route_5D486FAE-C813-4C66-9BD8-4D150C47CE15-KM-2000-IN-5D486FAE-C813-4C66-9BD8-4D150C47CE15-KM-3000-IN"/>
	<route edges="7ce15-5 7ce15-6 7ce15-7" color="191,99,191" id="route_5D486FAE-C813-4C66-9BD8-4D150C47CE15-KM-3000-IN-5D486FAE-C813-4C66-9BD8-4D150C47CE15-KM-4000-IN"/>
	<route edges="7ce15-7 7ce15-8 7ce15-9" color="252,66,192" id="route_5D486FAE-C813-4C66-9BD8-4D150C47CE15-KM-4000-IN-5D486FAE-C813-4C66-9BD8-4D150C47CE15-KM-5000-IN"/>
	<route edges="7ce15-9 7ce15-10 7ce15-11" color="39,15,73" id="route_5D486FAE-C813-4C66-9BD8-4D150C47CE15-KM-5000-IN-5D486FAE-C813-4C66-9BD8-4D150C47CE15-KM-6000-IN"/>
	<route edges="7ce15-11 7ce15-12 7ce15-13" color="43,180,164" id="route_5D486FAE-C813-4C66-9BD8-4D150C47CE15-KM-6000-IN-5D486FAE-C813-4C66-9BD8-4D150C47CE15-KM-7625.423054083232-IN"/>
	<route edges="7ce15-13 7ce15-14 82978-0 82978-1" color="214,122,62" id="route_5D486FAE-C813-4C66-9BD8-4D150C47CE15-KM-7625.423054083232-IN-504B0CC1-4C9C-411C-8445-1EBF2A782978-KM-86.42029216853058-IN"/>
	<route edges="7ce15-13-re 7ce15-12-re 7ce15-11-re" color="152,157,37" id="route_5D486FAE-C813-4C66-9BD8-4D150C47CE15-KM-6000-GEGEN-5D486FAE-C813-4C66-9BD8-4D150C47CE15-KM-5000-GEGEN"/>
	<route edges="7ce15-11-re 7ce15-10-re 7ce15-9-re" color="116,85,222" id="route_5D486FAE-C813-4C66-9BD8-4D150C47CE15-KM-5000-GEGEN-5D486FAE-C813-4C66-9BD8-4D150C47CE15-KM-4000-GEGEN"/>
	<route edges="7ce15-9-re 7ce15-8-re 7ce15-7-re" color="138,79,74" id="route_5D486FAE-C813-4C66-9BD8-4D150C47CE15-KM-4000-GEGEN-5D486FAE-C813-4C66-9BD8-4D150C47CE15-KM-3000-GEGEN"/>
	<route edges="7ce15-7-re 7ce15-6-re 7ce15-5-re" color="141,176,60" id="route_5D486FAE-C813-4C66-9BD8-4D150C47CE15-KM-3000-GEGEN-5D486FAE-C813-4C66-9BD8-4D150C47CE15-KM-2000-GEGEN"/>
	<route edges="7ce15-5-re 7ce15-4-re 7ce15-3-re" color="233,205,157" id="route_5D486FAE-C813-4C66-9BD8-4D150C47CE15-KM-2000-GEGEN-5D486FAE-C813-4C66-9BD8-4D150C47CE15-KM-1000-GEGEN"/>
	<route edges="7ce15-3-re 7ce15-2-re 7ce15-1-re" color="217,236,151" id="route_5D486FAE-C813-4C66-9BD8-4D150C47CE15-KM-1000-GEGEN-5D486FAE-C813-4C66-9BD8-4D150C47CE15-KM-25-GEGEN"/>
	<route edges="7ce15-1-re 7ce15-0-re 43407-0 43407-1" color="3,220,178" id="route_5D486FAE-C813-4C66-9BD8-4D150C47CE15-KM-25-GEGEN-8EDC5226-D72D-4A00-A48A-1178D6D43407-KM-127.01052255433262-IN"/>
	<route edges="7ce15-1-re 7ce15-0-re 1122e-0 1122e-1" color="237,157,83" id="route_5D486FAE-C813-4C66-9BD8-4D150C47CE15-KM-25-GEGEN-86A68A7B-0B23-4EA6-99AA-986692D1122E-KM-848.6990357234663-IN"/>
	<route edges="43407-1 43407-2 faa9a-2-re faa9a-1-re" color="90,25,61" id="route_8EDC5226-D72D-4A00-A48A-1178D6D43407-KM-127.01052255433262-IN-F793A2E7-BAF1-4A30-B5E1-452F8E7FAA9A-KM-25-GEGEN"/>
	<route edges="43407-1-re 43407-0-re 7ce15-0 7ce15-1" color="63,166,138" id="route_8EDC5226-D72D-4A00-A48A-1178D6D43407-KM-25-GEGEN-5D486FAE-C813-4C66-9BD8-4D150C47CE15-KM-1000-IN"/>
	<route edges="3252c-1 3252c-2 8ad00-0 1fd96-0 1fd96-1" color="241,86,182" id="route_6B7A58AC-8DFE-410E-B98E-D4545F43252C-KM-164.87032984724672-IN-C41E73B5-C0F7-4182-9CB8-B0E13731FD96-KM-181.66400492600528-IN"/>
	<route edges="3252c-1 3252c-2 8ad00-0 9a693-0 9a693-1" color="157,5,141" id="route_6B7A58AC-8DFE-410E-B98E-D4545F43252C-KM-164.87032984724672-IN-D92C683E-8EC6-4C5B-8718-300E0A79A693-KM-340.8087986779541-IN"/>
	<route edges="3252c-1-re 3252c-0-re 1bf8d-2-re 1bf8d-1-re" color="108,179,70" id="route_6B7A58AC-8DFE-410E-B98E-D4545F43252C-KM-25-GEGEN-C026829B-BA28-4550-A15F-F16ADD51BF8D-KM-25-GEGEN"/>
	<route edges="9a693-1 9a693-2 136a5-0-re e22c1-0 e22c1-1" color="111,83,43" id="route_D92C683E-8EC6-4C5B-8718-300E0A79A693-KM-340.8087986779541-IN-AF7CC9ED-3DA1-4385-A774-2C902DCE22C1-KM-1000-IN"/>
	<route edges="9a693-1 9a693-2 136a5-0-re f220a-0 c2700-0 c2700-1" color="36,146,83" id="route_D92C683E-8EC6-4C5B-8718-300E0A79A693-KM-340.8087986779541-IN-BD900CEB-3840-43AB-BC41-84C1E34C2700-KM-1000-IN"/>
	<route edges="9a693-1-re 9a693-0-re 8ad00-0-re 113d8-0 cc924-0-re fb5a1-2-re fb5a1-1-re" color="128,164,232" id="route_D92C683E-8EC6-4C5B-8718-300E0A79A693-KM-25-GEGEN-FA69F082-2681-4F6A-8547-DA23877FB5A1-KM-25-GEGEN"/>
	<route edges="9a693-1-re 9a693-0-re 8ad00-0-re 113d8-0 cc924-0-re c7f4f-0-re 1bf8d-2-re 1bf8d-1-re" color="111,204,216" id="route_D92C683E-8EC6-4C5B-8718-300E0A79A693-KM-25-GEGEN-C026829B-BA28-4550-A15F-F16ADD51BF8D-KM-25-GEGEN"/>
	<route edges="9a693-1-re 9a693-0-re 8ad00-0-re 3252c-2-re 3252c-1-re" color="16,239,112" id="route_D92C683E-8EC6-4C5B-8718-300E0A79A693-KM-25-GEGEN-6B7A58AC-8DFE-410E-B98E-D4545F43252C-KM-25-GEGEN"/>
	<route edges="1fd96-1 1fd96-2 b23e4-0-re 38e80-2-re 38e80-1-re" color="237,100,133" id="route_C41E73B5-C0F7-4182-9CB8-B0E13731FD96-KM-181.66400492600528-IN-0FFD44E2-E0ED-4732-8106-CDA67C838E80-KM-25-GEGEN"/>
	<route edges="1fd96-1 1fd96-2 b23e4-0-re 7c65a-0 dd7c5-4-re dd7c5-3-re" color="29,109,163" id="route_C41E73B5-C0F7-4182-9CB8-B0E13731FD96-KM-181.66400492600528-IN-4B97DE0E-BF6B-4464-8065-CC948D6DD7C5-KM-1000-GEGEN"/>
	<route edges="1fd96-1 1fd96-2 b23e4-0-re 7c65a-0 713ce-0-re 136a5-0-re e22c1-0 e22c1-1" color="37,6,171" id="route_C41E73B5-C0F7-4182-9CB8-B0E13731FD96-KM-181.66400492600528-IN-AF7CC9ED-3DA1-4385-A774-2C902DCE22C1-KM-1000-IN"/>
	<route edges="1fd96-1 1fd96-2 b23e4-0-re 7c65a-0 713ce-0-re 136a5-0-re f220a-0 c2700-0 c2700-1" color="104,85,191" id="route_C41E73B5-C0F7-4182-9CB8-B0E13731FD96-KM-181.66400492600528-IN-BD900CEB-3840-43AB-BC41-84C1E34C2700-KM-1000-IN"/>
	<route edges="1fd96-1-re 1fd96-0-re 8ad00-0-re 113d8-0 cc924-0-re fb5a1-2-re fb5a1-1-re" color="171,199,225" id="route_C41E73B5-C0F7-4182-9CB8-B0E13731FD96-KM-25-GEGEN-FA69F082-2681-4F6A-8547-DA23877FB5A1-KM-25-GEGEN"/>
	<route edges="1fd96-1-re 1fd96-0-re 8ad00-0-re 113d8-0 cc924-0-re c7f4f-0-re 1bf8d-2-re 1bf8d-1-re" color="29,79,10" id="route_C41E73B5-C0F7-4182-9CB8-B0E13731FD96-KM-25-GEGEN-C026829B-BA28-4550-A15F-F16ADD51BF8D-KM-25-GEGEN"/>
	<route edges="1fd96-1-re 1fd96-0-re 8ad00-0-re 3252c-2-re 3252c-1-re" color="163,27,122" id="route_C41E73B5-C0F7-4182-9CB8-B0E13731FD96-KM-25-GEGEN-6B7A58AC-8DFE-410E-B98E-D4545F43252C-KM-25-GEGEN"/>
	<route edges="82978-1 82978-2 89f4a-2-re 89f4a-1-re" color="122,72,41" id="route_504B0CC1-4C9C-411C-8445-1EBF2A782978-KM-86.42029216853058-IN-5A7882D5-105F-4A65-88BD-2123AF689F4A-KM-25-GEGEN"/>
	<route edges="82978-1 82978-2 3e09d-0-re f3db4-0 f3db4-1" color="141,171,36" id="route_504B0CC1-4C9C-411C-8445-1EBF2A782978-KM-86.42029216853058-IN-AB97BFC7-7498-4E7C-A853-90A22EFF3DB4-KM-1453.541904487744-IN"/>
	<route edges="82978-1-re 82978-0-re dd7c5-0 dd7c5-1" color="75,110,191" id="route_504B0CC1-4C9C-411C-8445-1EBF2A782978-KM-25-GEGEN-4B97DE0E-BF6B-4464-8065-CC948D6DD7C5-KM-1000-IN"/>
	<route edges="82978-1-re 82978-0-re 7ce15-14-re 7ce15-13-re" color="170,228,127" id="route_504B0CC1-4C9C-411C-8445-1EBF2A782978-KM-25-GEGEN-5D486FAE-C813-4C66-9BD8-4D150C47CE15-KM-6000-GEGEN"/>
	<route edges="dd7c5-1 dd7c5-2 dd7c5-3" color="140,133,83" id="route_4B97DE0E-BF6B-4464-8065-CC948D6DD7C5-KM-1000-IN-4B97DE0E-BF6B-4464-8065-CC948D6DD7C5-KM-2904.2543286491227-IN"/>
	<route edges="dd7c5-3 dd7c5-4 7c65a-0-re b23e4-0 1fd96-2-re 1fd96-1-re" color="84,210,19" id="route_4B97DE0E-BF6B-4464-8065-CC948D6DD7C5-KM-2904.2543286491227-IN-C41E73B5-C0F7-4182-9CB8-B0E13731FD96-KM-25-GEGEN"/>
	<route edges="dd7c5-3 dd7c5-4 7c65a-0-re b23e4-0 dc35d-0 93b06-0 93b06-1" color="163,81,104" id="route_4B97DE0E-BF6B-4464-8065-CC948D6DD7C5-KM-2904.2543286491227-IN-E42CBEF1-A246-46CA-A172-94CBE6993B06-KM-893.3775715190525-IN"/>