<edges>
<!-- Track 437e1a5f-4724-49e0-a7e5-331059e47db8 -->
<edge id="47db8-0" from="127d4" to="437e1a5f-4724-49e0-a7e5-331059e47db8-km-25-gegen" shape="-2502198.1259712474,3467432.6135298666 -2502222.669270449,3467437.370258187" priority="-1" numLanes="1" speed="110.0" allow="rail rail_electric" spreadType="center" />
<edge id="47db8-0-re" from="437e1a5f-4724-49e0-a7e5-331059e47db8-km-25-gegen" to="127d4" shape="-2502222.669270449,3467437.370258187 -2502198.1259712474,3467432.6135298666" priority="-1" numLanes="1" speed="110.0" allow="rail rail_electric" spreadType="center" />
<!-- Track 437e1a5f-4724-49e0-a7e5-331059e47db8 -->
<edge id="47db8-1" from="437e1a5f-4724-49e0-a7e5-331059e47db8-km-25-gegen" to="437e1a5f-4724-49e0-a7e5-331059e47db8-km-321.5762856547864-in" shape="-2502222.669270449,3467437.370258187 -2502326.879854113,3467457.567275325 -2502513.502873321,3467495.4370743074" priority="-1" numLanes="1" speed="110.0" allow="rail rail_electric" spreadType="center" />
<edge id="47db8-1-re" from="437e1a5f-4724-49e0-a7e5-331059e47db8-km-321.5762856547864-in" to="437e1a5f-4724-49e0-a7e5-331059e47db8-km-25-gegen" shape="-2502513.502873321,3467495.4370743074 -2502326.879854113,3467457.567275325 -2502222.669270449,3467437.370258187" priority="-1" numLanes="1" speed="110.0" allow="rail rail_electric" spreadType="center" />
<!-- Track 437e1a5f-4724-49e0-a7e5-331059e47db8 -->
<edge id="47db8-2" from="437e1a5f-4724-49e0-a7e5-331059e47db8-km-321.5762856547864-in" to="554ed" shape="-2502513.502873321,3467495.4370743074 -2502538.003529084,3467500.4087809734" priority="-1" numLanes="1" speed="110.0" allow="rail rail_electric" spreadType="center" />
<edge id="47db8-2-re" from="554ed" to="437e1a5f-4724-49e0-a7e5-331059e47db8-km-321.5762856547864-in" shape="-2502538.003529084,3467500.4087809734 -2502513.502873321,3467495.4370743074" priority="-1" numLanes="1" speed="110.0" allow="rail rail_electric" spreadType="center" />
<!-- Track 1e031faa-0230-45a7-939c-8b9d2af94572 -->
<edge id="94572-0" from="127d4" to="1e031faa-0230-45a7-939c-8b9d2af94572-km-25-gegen" shape="-2502198.1259712474,3467432.6135298666 -2502173.6116686147,3467427.7095553116" priority="-1" numLanes="1" speed="110.0" allow="rail rail_electric" spreadType="center" />
<edge id="94572-0-re" from="1e031faa-0230-45a7-939c-8b9d2af94572-km-25-gegen" to="127d4" shape="-2502173.6116686147,3467427.7095553116 -2502198.1259712474,3467432.6135298666" priority="-1" numLanes="1" speed="110.0" allow="rail rail_electric" spreadType="center" />
<!-- Track 1e031faa-0230-45a7-939c-8b9d2af94572 -->
<edge id="94572-1" from="1e031faa-0230-45a7-939c-8b9d2af94572-km-25-gegen" to="1e031faa-0230-45a7-939c-8b9d2af94572-km-165.5616561823125-in" shape="-2502173.6116686147,3467427.7095553116 -2502035.7808294874,3467400.137123897" priority="-1" numLanes="1" speed="110.0" allow="rail rail_electric" spreadType="center" />
<edge id="94572-1-re" from="1e031faa-0230-45a7-939c-8b9d2af94572-km-165.5616561823125-in" to="1e031faa-0230-45a7-939c-8b9d2af94572-km-25-gegen" shape="-2502035.7808294874,3467400.137123897 -2502173.6116686147,3467427.7095553116" priority="-1" numLanes="1" speed="110.0" allow="rail rail_electric" spreadType="center" />
<!-- Track 1e031faa-0230-45a7-939c-8b9d2af94572 -->
<edge id="94572-2" from="1e031faa-0230-45a7-939c-8b9d2af94572-km-165.5616561823125-in" to="d8bc3" shape="-2502035.7808294874,3467400.137123897 -2502011.2665268546,3467395.2331493422" priority="-1" numLanes="1" speed="110.0" allow="rail rail_electric" spreadType="center" />
<edge id="94572-2-re" from="d8bc3" to="1e031faa-0230-45a7-939c-8b9d2af94572-km-165.5616561823125-in" shape="-2502011.2665268546,3467395.2331493422 -2502035.7808294874,3467400.137123897" priority="-1" numLanes="1" speed="110.0" allow="rail rail_electric" spreadType="center" />
<!-- Track cca1602d-c065-48d1-b3bd-cdfc396c65fc -->
<edge id="c65fc-0" from="127d4" to="cca1602d-c065-48d1-b3bd-cdfc396c65fc-km-25-gegen" shape="-2502198.1259712474,3467432.6135298666 -2502173.3051357637,3467429.6258675884" priority="-1" numLanes="1" speed="110.0" allow="rail rail_electric" spreadType="center" />
<edge id="c65fc-0-re" from="cca1602d-c065-48d1-b3bd-cdfc396c65fc-km-25-gegen" to="127d4" shape="-2502173.3051357637,3467429.6258675884 -2502198.1259712474,3467432.6135298666" priority="-1" numLanes="1" speed="110.0" allow="rail rail_electric" spreadType="center" />
<!-- Track cca1602d-c065-48d1-b3bd-cdfc396c65fc -->
<edge id="c65fc-1" from="cca1602d-c065-48d1-b3bd-cdfc396c65fc-km-25-gegen" to="cca1602d-c065-48d1-b3bd-cdfc396c65fc-km-852.2588211144425-in" shape="-2502173.3051357637,3467429.6258675884 -2501986.5440240223,3467407.1455957647 -2501941.394594235,3467406.669230707 -2501900.14020605,3467408.084832847 -2501830.2628213717,3467412.3299855366 -2501757.781161777,3467419.529616246 -2501699.9119592384,3467418.698338378 -2501637.2374989176,3467415.157012349 -2501580.245985288,3467407.526348047 -2501352.99611748,3467362.206877052" priority="-1" numLanes="1" speed="110.0" allow="rail rail_electric" spreadType="center" />
<edge id="c65fc-1-re" from="cca1602d-c065-48d1-b3bd-cdfc396c65fc-km-852.2588211144425-in" to="cca1602d-c065-48d1-b3bd-cdfc396c65fc-km-25-gegen" shape="-2501352.99611748,3467362.206877052 -2501580.245985288,3467407.526348047 -2501637.2374989176,3467415.157012349 -2501699.9119592384,3467418.698338378 -2501757.781161777,3467419.529616246 -2501830.2628213717,3467412.3299855366 -2501900.14020605,3467408.084832847 -2501941.394594235,3467406.669230707 -2501986.5440240223,3467407.1455957647 -2502173.3051357637,3467429.6258675884" priority="-1" numLanes="1" speed="110.0" allow="rail rail_electric" spreadType="center" />
<!-- Track cca1602d-c065-48d1-b3bd-cdfc396c65fc -->
<edge id="c65fc-2" from="cca1602d-c065-48d1-b3bd-cdfc396c65fc-km-852.2588211144425-in" to="8b7d1" shape="-2501352.99611748,3467362.206877052 -2501328.4788967334,3467357.3175123837" priority="-1" numLanes="1" speed="110.0" allow="rail rail_electric" spreadType="center" />
<edge id="c65fc-2-re" from="8b7d1" to="cca1602d-c065-48d1-b3bd-cdfc396c65fc-km-852.2588211144425-in" shape="-2501328.4788967334,3467357.3175123837 -2501352.99611748,3467362.206877052" priority="-1" numLanes="1" speed="110.0" allow="rail rail_electric" spreadType="center" />
<!-- Track 04e43495-73c3-4283-8fad-2f886d5fa5b7 -->
<edge id="fa5b7-0" from="d8bc3" to="04e43495-73c3-4283-8fad-2f886d5fa5b7-km-25-gegen" shape="-2502011.2665268546,3467395.2331493422 -2501986.4846162554,3467391.938167242" priority="-1" numLanes="1" speed="110.0" allow="rail rail_electric" spreadType="center" />
<edge id="fa5b7-0-re" from="04e43495-73c3-4283-8fad-2f886d5fa5b7-km-25-gegen" to="d8bc3" shape="-2501986.4846162554,3467391.938167242 -2502011.2665268546,3467395.2331493422" priority="-1" numLanes="1" speed="110.0" allow="rail rail_electric" spreadType="center" />
<!-- Track 04e43495-73c3-4283-8fad-2f886d5fa5b7 -->
<edge id="fa5b7-1" from="04e43495-73c3-4283-8fad-2f886d5fa5b7-km-25-gegen" to="04e43495-73c3-4283-8fad-2f886d5fa5b7-km-788.1457216628645-in" shape="-2501986.4846162554,3467391.938167242 -2501902.187891895,3467380.730145294 -2501866.152929621,3467378.21362713 -2501673.0765554016,3467367.3538590707 -2501592.416926997,3467359.140942909 -2501551.447303158,3467353.074182581 -2501505.253120913,3467345.780980693 -2501231.263445984,3467291.352738634" priority="-1" numLanes="1" speed="110.0" allow="rail rail_electric" spreadType="center" />
<edge id="fa5b7-1-re" from="04e43495-73c3-4283-8fad-2f886d5fa5b7-km-788.1457216628645-in" to="04e43495-73c3-4283-8fad-2f886d5fa5b7-km-25-gegen" shape="-2501231.263445984,3467291.352738634 -2501505.253120913,3467345.780980693 -2501551.447303158,3467353.074182581 -2501592.416926997,3467359.140942909 -2501673.0765554016,3467367.3538590707 -2501866.152929621,3467378.21362713 -2501902.187891895,3467380.730145294 -2501986.4846162554,3467391.938167242" priority="-1" numLanes="1" speed="110.0" allow="rail rail_electric" spreadType="center" />
<!-- Track 04e43495-73c3-4283-8fad-2f886d5fa5b7 -->
<edge id="fa5b7-2" from="04e43495-73c3-4283-8fad-2f886d5fa5b7-km-788.1457216628645-in" to="c09ce" shape="-2501231.263445984,3467291.352738634 -2501206.7425870663,3467286.4816527255" priority="-1" numLanes="1" speed="110.0" allow="rail rail_electric" spreadType="center" />
<edge id="fa5b7-2-re" from="c09ce" to="04e43495-73c3-4283-8fad-2f886d5fa5b7-km-788.1457216628645-in" shape="-2501206.7425870663,3467286.4816527255 -2501231.263445984,3467291.352738634" priority="-1" numLanes="1" speed="110.0" allow="rail rail_electric" spreadType="center" />
<!-- Track c681f4ab-1da2-4261-8a22-d3e512720905 -->
<edge id="20905-0" from="d8bc3" to="c681f4ab-1da2-4261-8a22-d3e512720905-km-25-gegen" shape="-2502011.2665268546,3467395.2331493422 -2501986.867727038,3467389.7835101327" priority="-1" numLanes="1" speed="110.0" allow="rail rail_electric" spreadType="center" />
<edge id="20905-0-re" from="c681f4ab-1da2-4261-8a22-d3e512720905-km-25-gegen" to="d8bc3" shape="-2501986.867727038,3467389.7835101327 -2502011.2665268546,3467395.2331493422" priority="-1" numLanes="1" speed="110.0" allow="rail rail_electric" spreadType="center" />
<!-- Track c681f4ab-1da2-4261-8a22-d3e512720905 -->
<edge id="20905-1" from="c681f4ab-1da2-4261-8a22-d3e512720905-km-25-gegen" to="c681f4ab-1da2-4261-8a22-d3e512720905-km-238.52550007798908-in" shape="-2501986.867727038,3467389.7835101327 -2501807.904326056,3467349.8108076043 -2501778.5806097006,3467342.790603453" priority="-1" numLanes="1" speed="110.0" allow="rail rail_electric" spreadType="center" />
<edge id="20905-1-re" from="c681f4ab-1da2-4261-8a22-d3e512720905-km-238.52550007798908-in" to="c681f4ab-1da2-4261-8a22-d3e512720905-km-25-gegen" shape="-2501778.5806097006,3467342.790603453 -2501807.904326056,3467349.8108076043 -2501986.867727038,3467389.7835101327" priority="-1" numLanes="1" speed="110.0" allow="rail rail_electric" spreadType="center" />
<!-- Track c681f4ab-1da2-4261-8a22-d3e512720905 -->
<edge id="20905-2" from="c681f4ab-1da2-4261-8a22-d3e512720905-km-238.52550007798908-in" to="3980d" shape="-2501778.5806097006,3467342.790603453 -2501754.2676406577,3467336.9699903987" priority="-1" numLanes="1" speed="110.0" allow="rail rail_electric" spreadType="center" />
<edge id="20905-2-re" from="3980d" to="c681f4ab-1da2-4261-8a22-d3e512720905-km-238.52550007798908-in" shape="-2501754.2676406577,3467336.9699903987 -2501778.5806097006,3467342.790603453" priority="-1" numLanes="1" speed="110.0" allow="rail rail_electric" spreadType="center" />
<!-- Track de9e31bb-886b-4172-aaf8-e477d354d341 -->
<edge id="4d341-0" from="c09ce" to="de9e31bb-886b-4172-aaf8-e477d354d341-km-25-gegen" shape="-2501206.7425870663,3467286.4816527255 -2501182.2386736786,3467281.5260267616" priority="-1" numLanes="1" speed="110.0" allow="rail rail_electric" spreadType="center" />
<edge id="4d341-0-re" from="de9e31bb-886b-4172-aaf8-e477d354d341-km-25-gegen" to="c09ce" shape="-2501182.2386736786,3467281.5260267616 -2501206.7425870663,3467286.4816527255" priority="-1" numLanes="1" speed="110.0" allow="rail rail_electric" spreadType="center" />
<!-- Track de9e31bb-886b-4172-aaf8-e477d354d341 -->
<edge id="4d341-1" from="de9e31bb-886b-4172-aaf8-e477d354d341-km-25-gegen" to="de9e31bb-886b-4172-aaf8-e477d354d341-km-169.7673894741766-in" shape="-2501182.2386736786,3467281.5260267616 -2501040.343970758,3467252.8295054003" priority="-1" numLanes="1" speed="110.0" allow="rail rail_electric" spreadType="center" />
<edge id="4d341-1-re" from="de9e31bb-886b-4172-aaf8-e477d354d341-km-169.7673894741766-in" to="de9e31bb-886b-4172-aaf8-e477d354d341-km-25-gegen" shape="-2501040.343970758,3467252.8295054003 -2501182.2386736786,3467281.5260267616" priority="-1" numLanes="1" speed="110.0" allow="rail rail_electric" spreadType="center" />
<!-- Track de9e31bb-886b-4172-aaf8-e477d354d341 -->
<edge id="4d341-2" from="de9e31bb-886b-4172-aaf8-e477d354d341-km-169.7673894741766-in" to="cb700" shape="-2501040.343970758,3467252.8295054003 -2501015.8400573703,3467247.8738794364" priority="-1" numLanes="1" speed="110.0" allow="rail rail_electric" spreadType="center" />
<edge id="4d341-2-re" from="cb700" to="de9e31bb-886b-4172-aaf8-e477d354d341-km-169.7673894741766-in" shape="-2501015.8400573703,3467247.8738794364 -2501040.343970758,3467252.8295054003" priority="-1" numLanes="1" speed="110.0" allow="rail rail_electric" spreadType="center" />
<!-- Track 54310183-1f30-4537-8d98-db970183f3e6 -->
<edge id="3f3e6-0" from="c09ce" to="54310183-1f30-4537-8d98-db970183f3e6-km-25-gegen" shape="-2501206.7425870663,3467286.4816527255 -2501231.489801964,3467290.0278274002" priority="-1" numLanes="1" speed="110.0" allow="rail rail_electric" spreadType="center" />
<edge id="3f3e6-0-re" from="54310183-1f30-4537-8d98-db970183f3e6-km-25-gegen" to="c09ce" shape="-2501231.489801964,3467290.0278274002 -2501206.7425870663,3467286.4816527255" priority="-1" numLanes="1" speed="110.0" allow="rail rail_electric" spreadType="center" />
<!-- Track 54310183-1f30-4537-8d98-db970183f3e6 -->
<edge id="3f3e6-1" from="54310183-1f30-4537-8d98-db970183f3e6-km-25-gegen" to="735c6" shape="-2501231.489801964,3467290.0278274002 -2501292.2642674847,3467298.736559732 -2501351.8286421327,3467306.9248945564 -2501777.896236745,3467364.0153826177" priority="-1" numLanes="1" speed="110.0" allow="rail rail_electric" spreadType="center" />
<edge id="3f3e6-1-re" from="735c6" to="54310183-1f30-4537-8d98-db970183f3e6-km-25-gegen" shape="-2501777.896236745,3467364.0153826177 -2501351.8286421327,3467306.9248945564 -2501292.2642674847,3467298.736559732 -2501231.489801964,3467290.0278274002" priority="-1" numLanes="1" speed="110.0" allow="rail rail_electric" spreadType="center" />
<!-- Track 566bd61a-4b3e-4fbf-8cfc-5140ac2aa079 -->
<edge id="aa079-0" from="cb700" to="566bd61a-4b3e-4fbf-8cfc-5140ac2aa079-km-25-gegen" shape="-2501015.8400573703,3467247.8738794364 -2500991.319573685,3467243.0009050015" priority="-1" numLanes="1" speed="110.0" allow="rail rail_electric" spreadType="center" />
<edge id="aa079-0-re" from="566bd61a-4b3e-4fbf-8cfc-5140ac2aa079-km-25-gegen" to="cb700" shape="-2500991.319573685,3467243.0009050015 -2501015.8400573703,3467247.8738794364" priority="-1" numLanes="1" speed="110.0" allow="rail rail_electric" spreadType="center" />
<!-- Track 566bd61a-4b3e-4fbf-8cfc-5140ac2aa079 -->
<edge id="aa079-1" from="566bd61a-4b3e-4fbf-8cfc-5140ac2aa079-km-25-gegen" to="566bd61a-4b3e-4fbf-8cfc-5140ac2aa079-km-684.7733628877847-in" shape="-2500991.319573685,3467243.0009050015 -2500344.2010944607,3467114.398555789" priority="-1" numLanes="1" speed="110.0" allow="rail rail_electric" spreadType="center" />
<edge id="aa079-1-re" from="566bd61a-4b3e-4fbf-8cfc-5140ac2aa079-km-684.7733628877847-in" to="566bd61a-4b3e-4fbf-8cfc-5140ac2aa079-km-25-gegen" shape="-2500344.2010944607,3467114.398555789 -2500991.319573685,3467243.0009050015" priority="-1" numLanes="1" speed="110.0" allow="rail rail_electric" spreadType="center" />
<!-- Track 566bd61a-4b3e-4fbf-8cfc-5140ac2aa079 -->
<edge id="aa079-2" from="566bd61a-4b3e-4fbf-8cfc-5140ac2aa079-km-684.7733628877847-in" to="d05fb" shape="-2500344.2010944607,3467114.398555789 -2500319.680610776,3467109.5255813543" priority="-1" numLanes="1" speed="110.0" allow="rail rail_electric" spreadType="center" />
<edge id="aa079-2-re" from="d05fb" to="566bd61a-4b3e-4fbf-8cfc-5140ac2aa079-km-684.7733628877847-in" shape="-2500319.680610776,3467109.5255813543 -2500344.2010944607,3467114.398555789" priority="-1" numLanes="1" speed="110.0" allow="rail rail_electric" spreadType="center" />
<!-- Track 5f3ce659-99b2-4321-a832-de86ffaef785 -->
<edge id="ef785-0" from="cb700" to="5f3ce659-99b2-4321-a832-de86ffaef785-km-25-gegen" shape="-2501015.8400573703,3467247.8738794364 -2501040.129426962,3467253.792200551" priority="-1" numLanes="1" speed="110.0" allow="rail rail_electric" spreadType="center" />
<edge id="ef785-0-re" from="5f3ce659-99b2-4321-a832-de86ffaef785-km-25-gegen" to="cb700" shape="-2501040.129426962,3467253.792200551 -2501015.8400573703,3467247.8738794364" priority="-1" numLanes="1" speed="110.0" allow="rail rail_electric" spreadType="center" />
<!-- Track 5f3ce659-99b2-4321-a832-de86ffaef785 -->
<edge id="ef785-1" from="5f3ce659-99b2-4321-a832-de86ffaef785-km-25-gegen" to="0edb4" shape="-2501040.129426962,3467253.792200551 -2501115.083613891,3467272.0554554053 -2501236.739845654,3467305.6705410834 -2501274.012567208,3467312.6615284346 -2501684.7521156543,3467394.7215760183" priority="-1" numLanes="1" speed="110.0" allow="rail rail_electric" spreadType="center" />
<edge id="ef785-1-re" from="0edb4" to="5f3ce659-99b2-4321-a832-de86ffaef785-km-25-gegen" shape="-2501684.7521156543,3467394.7215760183 -2501274.012567208,3467312.6615284346 -2501236.739845654,3467305.6705410834 -2501115.083613891,3467272.0554554053 -2501040.129426962,3467253.792200551" priority="-1" numLanes="1" speed="110.0" allow="rail rail_electric" spreadType="center" />
<!-- Track 5bebd9cc-887c-43c0-b715-7826db6d6d0c -->
<edge id="d6d0c-0" from="592b8" to="5bebd9cc-887c-43c0-b715-7826db6d6d0c-km-25-gegen" shape="-2498540.5476426897,3466763.493575601 -2498516.147492651,3466758.0499850498" priority="-1" numLanes="1" speed="110.0" allow="rail rail_electric" spreadType="center" />
<edge id="d6d0c-0-re" from="5bebd9cc-887c-43c0-b715-7826db6d6d0c-km-25-gegen" to="592b8" shape="-2498516.147492651,3466758.0499850498 -2498540.5476426897,3466763.493575601" priority="-1" numLanes="1" speed="110.0" allow="rail rail_electric" spreadType="center" />
<!-- Track 5bebd9cc-887c-43c0-b715-7826db6d6d0c -->
<edge id="d6d0c-1" from="5bebd9cc-887c-43c0-b715-7826db6d6d0c-km-25-gegen" to="5bebd9cc-887c-43c0-b715-7826db6d6d0c-km-254.45431792963808-in" shape="-2498516.147492651,3466758.0499850498 -2498402.661352981,3466732.7316129655 -2498329.9658797192,3466713.124746185 -2498293.0708839176,3466704.520165761" priority="-1" numLanes="1" speed="110.0" allow="rail rail_electric" spreadType="center" />
<edge id="d6d0c-1-re" from="5bebd9cc-887c-43c0-b715-7826db6d6d0c-km-254.45431792963808-in" to="5bebd9cc-887c-43c0-b715-7826db6d6d0c-km-25-gegen" shape="-2498293.0708839176,3466704.520165761 -2498329.9658797192,3466713.124746185 -2498402.661352981,3466732.7316129655 -2498516.147492651,3466758.0499850498" priority="-1" numLanes="1" speed="110.0" allow="rail rail_electric" spreadType="center" />
<!-- Track 5bebd9cc-887c-43c0-b715-7826db6d6d0c -->
<edge id="d6d0c-2" from="5bebd9cc-887c-43c0-b715-7826db6d6d0c-km-254.45431792963808-in" to="9f627" shape="-2498293.0708839176,3466704.520165761 -2498268.7242329344,3466698.8420863394" priority="-1" numLanes="1" speed="110.0" allow="rail rail_electric" spreadType="center" />
<edge id="d6d0c-2-re" from="9f627" to="5bebd9cc-887c-43c0-b715-7826db6d6d0c-km-254.45431792963808-in" shape="-2498268.7242329344,3466698.8420863394 -2498293.0708839176,3466704.520165761" priority="-1" numLanes="1" speed="110.0" allow="rail rail_electric" spreadType="center" />
<!-- Track a2a6892e-95d8-434c-97f0-33b233befa7a -->
<edge id="efa7a-0" from="592b8" to="37902" shape="-2498540.5476426897,3466763.493575601 -2498576.533874395,3466770.6508105323" priority="-1" numLanes="1" speed="110.0" allow="rail rail_electric" spreadType="center" />
<edge id="efa7a-0-re" from="37902" to="592b8" shape="-2498576.533874395,3466770.6508105323 -2498540.5476426897,3466763.493575601" priority="-1" numLanes="1" speed="110.0" allow="rail rail_electric" spreadType="center" />
<!-- Track c7239052-2617-42a0-bce4-cfa20fce60ae -->
<edge id="e60ae-0" from="592b8" to="c7239052-2617-42a0-bce4-cfa20fce60ae-km-25-gegen" shape="-2498540.5476426897,3466763.493575601 -2498515.754955294,3466760.2806872274" priority="-1" numLanes="1" speed="110.0" allow="rail rail_electric" spreadType="center" />
<edge id="e60ae-0-re" from="c7239052-2617-42a0-bce4-cfa20fce60ae-km-25-gegen" to="592b8" shape="-2498515.754955294,3466760.2806872274 -2498540.5476426897,3466763.493575601" priority="-1" numLanes="1" speed="110.0" allow="rail rail_electric" spreadType="center" />
<!-- Track c7239052-2617-42a0-bce4-cfa20fce60ae -->
<edge id="e60ae-1" from="c7239052-2617-42a0-bce4-cfa20fce60ae-km-25-gegen" to="c7239052-2617-42a0-bce4-cfa20fce60ae-km-1000-in" shape="-2498515.754955294,3466760.2806872274 -2498252.6826554104,3466726.1891052946 -2498197.4809421357,3466721.890851874 -2498139.0232320046,3466720.7062249817 -2498060.3311859164,3466723.9792294167 -2497982.494693488,3466733.0181929395 -2497909.9296493446,3466748.156458294 -2497850.3497261205,3466766.0617731884 -2497809.3890527356,3466783.1006195005 -2497777.617311281,3466798.021042254 -2497757.6510621565,3466807.115437001 -2497727.259331015,3466826.298858639 -2497702.7541591264,3466844.8849410564 -2497672.7244021073,3466868.5284555852 -2497638.2983654123,3466909.567890471 -2497615.443567487,3466945.4508802867" priority="-1" numLanes="1" speed="110.0" allow="rail rail_electric" spreadType="center" />
<edge id="e60ae-1-re" from="c7239052-2617-42a0-bce4-cfa20fce60ae-km-1000-in" to="c7239052-2617-42a0-bce4-cfa20fce60ae-km-25-gegen" shape="-2497615.443567487,3466945.4508802867 -2497638.2983654123,3466909.567890471 -2497672.7244021073,3466868.5284555852 -2497702.7541591264,3466844.8849410564 -2497727.259331015,3466826.298858639 -2497757.6510621565,3466807.115437001 -2497777.617311281,3466798.021042254 -2497809.3890527356,3466783.1006195005 -2497850.3497261205,3466766.0617731884 -2497909.9296493446,3466748.156458294 -2497982.494693488,3466733.0181929395 -2498060.3311859164,3466723.9792294167 -2498139.0232320046,3466720.7062249817 -2498197.4809421357,3466721.890851874 -2498252.6826554104,3466726.1891052946 -2498515.754955294,3466760.2806872274" priority="-1" numLanes="1" speed="110.0" allow="rail rail_electric" spreadType="center" />
<!-- Track c7239052-2617-42a0-bce4-cfa20fce60ae -->
<edge id="e60ae-2" from="c7239052-2617-42a0-bce4-cfa20fce60ae-km-1000-in" to="c7239052-2617-42a0-bce4-cfa20fce60ae-km-1000-gegen" shape="-2497615.443567487,3466945.4508802867 -2497615.443567487,3466945.4508802867" priority="-1" numLanes="1" speed="110.0" allow="rail rail_electric" spreadType="center" />
<edge id="e60ae-2-re" from="c7239052-2617-42a0-bce4-cfa20fce60ae-km-1000-gegen" to="c7239052-2617-42a0-bce4-cfa20fce60ae-km-1000-in" shape="-2497615.443567487,3466945.4508802867 -2497615.443567487,3466945.4508802867" priority="-1" numLanes="1" speed="110.0" allow="rail rail_electric" spreadType="center" />
<!-- Track c7239052-2617-42a0-bce4-cfa20fce60ae -->
<edge id="e60ae-3" from="c7239052-2617-42a0-bce4-cfa20fce60ae-km-1000-gegen" to="c7239052-2617-42a0-bce4-cfa20fce60ae-km-2000-in" shape="-2497615.443567487,3466945.4508802867 -2497613.251409583,3466948.8926599957 -2497593.607536464,3466989.272440452 -2497575.081284268,3467046.9352106173 -2497569.9086821945,3467066.77810714 -2497563.7344133407,3467105.9624592084 -2497557.5013369834,3467146.900458861 -2497556.054178887,3467193.9233511053 -2497556.2335239397,3467236.880963335 -2497560.396947277,3467302.475907631 -2497575.6325155986,3467387.626045577 -2497591.9254659587,3467452.6755200922 -2497624.940307323,3467543.711189067 -2497663.9474137807,3467628.1184534803 -2497712.753345648,3467713.11196517 -2497760.352298308,3467784.1246131547 -2497825.0446568336,3467867.2288087048 -2497825.6623152806,3467867.93357421" priority="-1" numLanes="1" speed="110.0" allow="rail rail_electric" spreadType="center" />
<edge id="e60ae-3-re" from="c7239052-2617-42a0-bce4-cfa20fce60ae-km-2000-in" to="c7239052-2617-42a0-bce4-cfa20fce60ae-km-1000-gegen" shape="-2497825.6623152806,3467867.93357421 -2497825.0446568336,3467867.2288087048 -2497760.352298308,3467784.1246131547 -2497712.753345648,3467713.11196517 -2497663.9474137807,3467628.1184534803 -2497624.940307323,3467543.711189067 -2497591.9254659587,3467452.6755200922 -2497575.6325155986,3467387.626045577 -2497560.396947277,3467302.475907631 -2497556.2335239397,3467236.880963335 -2497556.054178887,3467193.9233511053 -2497557.5013369834,3467146.900458861 -2497563.7344133407,3467105.9624592084 -2497569.9086821945,3467066.77810714 -2497575.081284268,3467046.9352106173 -2497593.607536464,3466989.272440452 -2497613.251409583,3466948.8926599957 -2497615.443567487,3466945.4508802867" priority="-1" numLanes="1" speed="110.0" allow="rail rail_electric" spreadType="center" />
<!-- Track c7239052-2617-42a0-bce4-cfa20fce60ae -->
<edge id="e60ae-4" from="c7239052-2617-42a0-bce4-cfa20fce60ae-km-2000-in" to="c7239052-2617-42a0-bce4-cfa20fce60ae-km-2000-gegen" shape="-2497825.6623152806,3467867.93357421 -2497825.6623152806,3467867.93357421" priority="-1" numLanes="1" speed="110.0" allow="rail rail_electric" spreadType="center" />
<edge id="e60ae-4-re" from="c7239052-2617-42a0-bce4-cfa20fce60ae-km-2000-gegen" to="c7239052-2617-42a0-bce4-cfa20fce60ae-km-2000-in" shape="-2497825.6623152806,3467867.93357421 -2497825.6623152806,3467867.93357421" priority="-1" numLanes="1" speed="110.0" allow="rail rail_electric" spreadType="center" />
<!-- Track c7239052-2617-42a0-bce4-cfa20fce60ae -->
<edge id="e60ae-5" from="c7239052-2617-42a0-bce4-cfa20fce60ae-km-2000-gegen" to="c7239052-2617-42a0-bce4-cfa20fce60ae-km-3000-in" shape="-2497825.6623152806,3467867.93357421 -2497882.947905049,3467933.2980289906 -2497954.1841731174,3468006.7474954054 -2498048.3906442933,3468092.7958315127 -2498147.851398303,3468178.256744899 -2498263.9241143996,3468270.6784133688 -2498342.1996997884,3468330.467676915 -2498420.8086415282,3468386.541345766 -2498589.5858431384,3468509.150828742" priority="-1" numLanes="1" speed="110.0" allow="rail rail_electric" spreadType="center" />
<edge id="e60ae-5-re" from="c7239052-2617-42a0-bce4-cfa20fce60ae-km-3000-in" to="c7239052-2617-42a0-bce4-cfa20fce60ae-km-2000-gegen" shape="-2498589.5858431384,3468509.150828742 -2498420.8086415282,3468386.541345766 -2498342.1996997884,3468330.467676915 -2498263.9241143996,3468270.6784133688 -2498147.851398303,3468178.256744899 -2498048.3906442933,3468092.7958315127 -2497954.1841731174,3468006.7474954054 -2497882.947905049,3467933.2980289906 -2497825.6623152806,3467867.93357421" priority="-1" numLanes="1" speed="110.0" allow="rail rail_electric" spreadType="center" />
<!-- Track c7239052-2617-42a0-bce4-cfa20fce60ae -->
<edge id="e60ae-6" from="c7239052-2617-42a0-bce4-cfa20fce60ae-km-3000-in" to="c7239052-2617-42a0-bce4-cfa20fce60ae-km-3000-gegen" shape="-2498589.5858431384,3468509.150828742 -2498589.5858431384,3468509.150828742" priority="-1" numLanes="1" speed="110.0" allow="rail rail_electric" spreadType="center" />
<edge id="e60ae-6-re" from="c7239052-2617-42a0-bce4-cfa20fce60ae-km-3000-gegen" to="c7239052-2617-42a0-bce4-cfa20fce60ae-km-3000-in" shape="-2498589.5858431384,3468509.150828742 -2498589.5858431384,3468509.150828742" priority="-1" numLanes="1" speed="110.0" allow="rail rail_electric" spreadType="center" />
<!-- Track c7239052-2617-42a0-bce4-cfa20fce60ae -->
<edge id="e60ae-7" from="c7239052-2617-42a0-bce4-cfa20fce60ae-km-3000-gegen" to="c7239052-2617-42a0-bce4-cfa20fce60ae-km-4000-in" shape="-2498589.5858431384,3468509.150828742 -2498652.2203915613,3468554.6521732677 -2499030.1810028283,3468824.3028133363 -2499401.620554218,3469092.7506764457" priority="-1" numLanes="1" speed="110.0" allow="rail rail_electric" spreadType="center" />
<edge id="e60ae-7-re" from="c7239052-2617-42a0-bce4-cfa20fce60ae-km-4000-in" to="c7239052-2617-42a0-bce4-cfa20fce60ae-km-3000-gegen" shape="-2499401.620554218,3469092.7506764457 -2499030.1810028283,3468824.3028133363 -2498652.2203915613,3468554.6521732677 -2498589.5858431384,3468509.150828742" priority="-1" numLanes="1" speed="110.0" allow="rail rail_electric" spreadType="center" />
<!-- Track c7239052-2617-42a0-bce4-cfa20fce60ae -->
<edge id="e60ae-8" from="c7239052-2617-42a0-bce4-cfa20fce60ae-km-4000-in" to="c7239052-2617-42a0-bce4-cfa20fce60ae-km-4000-gegen" shape="-2499401.620554218,3469092.7506764457 -2499401.620554218,3469092.7506764457" priority="-1" numLanes="1" speed="110.0" allow="rail rail_electric" spreadType="center" />
<edge id="e60ae-8-re" from="c7239052-2617-42a0-bce4-cfa20fce60ae-km-4000-gegen" to="c7239052-2617-42a0-bce4-cfa20fce60ae-km-4000-in" shape="-2499401.620554218,3469092.7506764457 -2499401.620554218,3469092.7506764457" priority="-1" numLanes="1" speed="110.0" allow="rail rail_electric" spreadType="center" />
<!-- Track c7239052-2617-42a0-bce4-cfa20fce60ae -->
<edge id="e60ae-9" from="c7239052-2617-42a0-bce4-cfa20fce60ae-km-4000-gegen" to="c7239052-2617-42a0-bce4-cfa20fce60ae-km-5560.253303703657-in" shape="-2499401.620554218,3469092.7506764457 -2499492.798785879,3469158.6472708173 -2499607.485439456,3469240.351318307 -2500024.2620206666,3469539.4774315134 -2500184.6441849023,3469655.137520615 -2500305.0514081763,3469739.8357069865 -2500418.802494419,3469824.2594126724 -2500574.488916107,3469936.359394327 -2500644.862524883,3469986.7818101123 -2500668.2600728334,3470003.756698894" priority="-1" numLanes="1" speed="110.0" allow="rail rail_electric" spreadType="center" />
<edge id="e60ae-9-re" from="c7239052-2617-42a0-bce4-cfa20fce60ae-km-5560.253303703657-in" to="c7239052-2617-42a0-bce4-cfa20fce60ae-km-4000-gegen" shape="-2500668.2600728334,3470003.756698894 -2500644.862524883,3469986.7818101123 -2500574.488916107,3469936.359394327 -2500418.802494419,3469824.2594126724 -2500305.0514081763,3469739.8357069865 -2500184.6441849023,3469655.137520615 -2500024.2620206666,3469539.4774315134 -2499607.485439456,3469240.351318307 -2499492.798785879,3469158.6472708173 -2499401.620554218,3469092.7506764457" priority="-1" numLanes="1" speed="110.0" allow="rail rail_electric" spreadType="center" />
<!-- Track c7239052-2617-42a0-bce4-cfa20fce60ae -->
<edge id="e60ae-10" from="c7239052-2617-42a0-bce4-cfa20fce60ae-km-5560.253303703657-in" to="690a8" shape="-2500668.2600728334,3470003.756698894 -2500688.495537996,3470018.4375009723" priority="-1" numLanes="1" speed="110.0" allow="rail rail_electric" spreadType="center" />