<nodes>
<node id="37c79" x="-2502198.1259712474" y="3467432.6135298666" type="priority"/>
<node id="25058" x="-2502011.2665268546" y="3467395.2331493422" type="priority"/>
<node id="016be" x="-2501206.7425870663" y="3467286.4816527255" type="priority"/>
<node id="02be8" x="-2501015.8400573703" y="3467247.8738794364" type="priority"/>
<node id="47614" x="-2498540.5476426897" y="3466763.493575601" type="priority"/>
<node id="cbed0" x="-2498268.7242329344" y="3466698.8420863394" type="priority"/>
<node id="10c63" x="-2497040.462225618" y="3464885.774583213" type="priority"/>
<node id="c961d" x="-2496162.36354741" y="3464067.9474426806" type="priority"/>
<node id="ca894" x="-2496131.913413137" y="3464011.285318941" type="priority"/>
<node id="f4864" x="-2495593.7788717486" y="3463048.5656199865" type="priority"/>
<node id="14ba7" x="-2495572.8213419244" y="3463024.2260274813" type="priority"/>
<node id="23aef" x="-2495551.4765986064" y="3462986.0530633815" type="priority"/>
<node id="4ddd0" x="-2495318.045403314" y="3462566.564838445" type="priority"/>
<node id="6ca93" x="-2495275.3629092383" y="3462471.414769586" type="priority"/>
<node id="3c4ac" x="-2503676.404524198" y="3464880.5900612995" type="priority"/>
<node id="a8ceb" x="-2504315.1983907623" y="3467381.2208863758" type="priority"/>
<node id="f538a" x="-2502769.909337136" y="3467539.54784913" type="priority"/>
<node id="1c878" x="-2502697.760225427" y="3467525.508187648" type="priority"/>
<node id="2f688" x="-2502331.0863398113" y="3465252.720229972" type="priority"/>
<node id="cb0b1" x="-2497083.5450266902" y="3465548.59632976" type="priority"/>
<node id="ace97" x="-2497069.432401452" y="3465359.2512058057" type="priority"/>
<node id="0908f" x="-2497065.8126140037" y="3465317.8648137003" type="priority"/>
<node id="d9213" x="-2497041.440397556" y="3464952.868824331" type="priority"/>
<node id="6dfdb" x="-2496371.0846978812" y="3462215.159929944" type="priority"/>
<node id="910d9" x="-2500331.6222948693" y="3467665.0683724526" type="priority"/>
<node id="849ca" x="-2498930.2773368666" y="3467393.8571683317" type="priority"/>
<node id="3fe2b" x="-2499734.4316743203" y="3467597.5212479085" type="priority"/>
<node id="183a4" x="-2498801.9523812663" y="3467368.3559434917" type="priority"/>
<node id="36171" x="-2498673.672173772" y="3467342.918289149" type="priority"/>
<node id="129af" x="-2498633.764461237" y="3467334.7586623207" type="priority"/>
<node id="82732" x="-2498322.0898685665" y="3467272.366575431" type="priority"/>
<node id="6583b" x="-2497075.666722486" y="3466204.615703579" type="priority"/>
<node id="3843d" x="-2497061.9513066644" y="3465998.245421957" type="priority"/>
<node id="09f59" x="-2497046.686252395" y="3465886.42595884" type="priority"/>
<node id="7d03b" x="-2496839.141787611" y="3464788.3996160217" type="priority"/>
<node id="a783f" x="-2497034.3964527408" y="3465095.2528475393" type="priority"/>
<node id="664e2" x="-2497034.476685264" y="3465113.8737149425" type="priority"/>
<node id="15259" x="-2497036.8904120736" y="3465176.5016141534" type="priority"/>
<node id="eab8f" x="-2498474.023222311" y="3467296.364572471" type="priority"/>
<node id="98a94" x="-2498502.8837209274" y="3467301.8339138143" type="priority"/>
<node id="db6b6" x="-2499122.972737599" y="3467285.5156779643" type="priority"/>
<node id="4f5c3" x="-2500467.12547502" y="3467481.454798378" type="priority"/>
<node id="cd6c3" x="-2500621.279613646" y="3467522.0178021565" type="priority"/>
<node id="d4ba3" x="-2500688.69755912" y="3467535.5087439455" type="priority"/>
<node id="d4d2d" x="-2499058.3062147787" y="3467298.44711807" type="priority"/>
<node id="b4692" x="-2499185.6098045795" y="3467278.6828434244" type="priority"/>
<node id="9a8b6" x="-2500527.036509263" y="3467513.3747138754" type="priority"/>
<node id="3b294" x="-2500794.82872739" y="3467557.0308718607" type="priority"/>
<node id="14d22" x="-2497081.371683648" y="3466118.72485717" type="priority"/>
<node id="e003d" x="-2497079.513382663" y="3466093.0951234326" type="priority"/>
<node id="4f77a" x="-2497044.272146808" y="3465809.0541065633" type="priority"/>
<node id="53513" x="-2497031.567065511" y="3465228.4608678035" type="priority"/>
<node id="85048" x="-2501328.4788967334" y="3467357.3175123837" type="priority"/>
<node id="46294" x="-2501684.7521156543" y="3467394.7215760183" type="priority"/>
<node id="0f59b" x="-2500242.037771492" y="3467093.7651768364" type="priority"/>
<node id="c29fe" x="-2500319.680610776" y="3467109.5255813543" type="priority"/>
<node id="9b225" x="-2501777.896236745" y="3467364.0153826177" type="priority"/>
<node id="53136" x="-2501754.2676406577" y="3467336.9699903987" type="priority"/>
<node id="b1b0a" x="-2500035.815226407" y="3467033.3977266587" type="priority"/>
<node id="5d7f7" x="-2499987.2606878616" y="3467020.5960581973" type="priority"/>
<node id="6125f" x="-2501657.209204673" y="3467317.685615007" type="priority"/>
<node id="e7be2" x="-2498792.813900535" y="3466804.0676157624" type="priority"/>
<node id="b4fd0" x="-2498747.896184812" y="3466795.4682170525" type="priority"/>
<node id="67aaf" x="-2498576.533874395" y="3466770.6508105323" type="priority"/>
<node id="c6275" x="-2504532.135782785" y="3467134.577269122" type="priority"/>
<node id="9be15" x="-2502942.7578787245" y="3467580.7814067304" type="priority"/>
<node id="45d6e" x="-2502538.003529084" y="3467500.4087809734" type="priority"/>
<node id="2731d" x="-2501238.068363766" y="3467195.8273923304" type="priority"/>
<node id="c715a" x="-2500086.6201245924" y="3466993.104762394" type="priority"/>
<node id="522ca" x="-2497145.9843781404" y="3466029.3686044663" type="priority"/>
<node id="d3d5c" x="-2497088.9501798907" y="3465468.2819657978" type="priority"/>
<node id="9922d" x="-2497086.7154849526" y="3465444.6221221574" type="priority"/>
<node id="124fa" x="-2497048.0897726333" y="3464789.1964890845" type="priority"/>
<node id="94916" x="-2501019.4484493495" y="3467145.3520164676" type="priority"/>
<node id="d36b3" x="-2500964.0177881164" y="3467134.394900754" type="priority"/>
<node id="cb519" x="-2500945.8398047495" y="3467130.3834230658" type="priority"/>
<node id="fba74" x="-2500537.1668997267" y="3467041.739925705" type="priority"/>
<node id="dc31f" x="-2502140.607585787" y="3467009.258268984" type="priority"/>
<node id="651c7" x="-2501902.6682683397" y="3467155.3962777425" type="priority"/>
<node id="38561" x="-2501876.6911785286" y="3467167.961622523" type="priority"/>
<node id="b540b" x="-2502296.8434519805" y="3466985.2674493976" type="priority"/>
<node id="3223b" x="-2501697.276335168" y="3467273.4409432486" type="priority"/>
<node id="f8cc5" x="-2501650.6815732657" y="3466684.869721353" type="priority"/>
<node id="02ba5" x="-2501624.060727443" y="3466829.677900173" type="priority"/>
<node id="71dc3" x="-2501680.7138658036" y="3466373.8661059476" type="priority"/>
<node id="10e1d" x="-2501493.2956323167" y="3467121.0775837004" type="priority"/>
<node id="02d33" x="-2501744.289997234" y="3466530.6026572026" type="priority"/>
<node id="306df" x="-2501710.391489074" y="3466704.9391898736" type="priority"/>
<node id="48e49" x="-2501529.190183764" y="3467101.7202721536" type="priority"/>
<node id="3f60d" x="-2501922.069804659" y="3466567.395823231" type="priority"/>
<node id="ac9d1" x="-2501337.145217537" y="3467201.348699242" type="priority"/>
<node id="72a08" x="-2501763.6837564292" y="3466533.9368123524" type="priority"/>
<node id="28342" x="-2501720.43328375" y="3466759.532188477" type="priority"/>
<node id="0681c" x="-2501712.360935439" y="3466804.2715751827" type="priority"/>
<node id="e86b9" x="-2501706.8819281883" y="3466830.976493396" type="priority"/>
<node id="bf0a1" x="-2501125.7703343397" y="3467160.181888856" type="priority"/>
<node id="e7ff3" x="-2501777.445023643" y="3466536.7739858255" type="priority"/>
<node id="da27d" x="-2502264.2091842024" y="3466495.995213615" type="priority"/>
<node id="eec10" x="-2502179.063329198" y="3466795.7862002067" type="priority"/>
<node id="77e53" x="-2502426.18147228" y="3466630.327128837" type="priority"/>
<node id="06f91" x="-2502396.210123115" y="3466792.4429140612" type="priority"/>
<node id="c8485" x="-2502347.0117528103" y="3466997.3510241583" type="priority"/>
<node id="3328f" x="-2502196.308018569" y="3466621.1122773997" type="priority"/>
<node id="1a43f" x="-2502193.461638051" y="3466631.626261197" type="priority"/>
<node id="7fca2" x="-2502143.621743397" y="3466897.591371428" type="priority"/>
<node id="8739a" x="-2502032.9887696807" y="3467060.3857934363" type="priority"/>
<node id="e3aba" x="-2502104.20205436" y="3466697.812655138" type="priority"/>
<node id="05bf5" x="-2502059.856354531" y="3466821.6534300186" type="priority"/>
<node id="27c33" x="-2502175.513446559" y="3466423.7868222147" type="priority"/>
<node id="59ad3" x="-2502115.3299532533" y="3466748.0320522245" type="priority"/>
<node id="f6a40" x="-2502101.580005467" y="3466817.306475252" type="priority"/>
<node id="0c57f" x="-2501971.2095116135" y="3467098.5233909674" type="priority"/>
<node id="e5ded" x="-2501319.763720846" y="3466113.1733392067" type="priority"/>
<node id="7f4a7" x="-2500517.832227069" y="3465953.217893377" type="priority"/>
<node id="3c377" x="-2500494.9040944874" y="3465948.763626851" type="priority"/>
<node id="835ef" x="-2499245.899891342" y="3465699.164659325" type="priority"/>
<node id="ee312" x="-2499165.494184752" y="3465683.0554291047" type="priority"/>
<node id="97778" x="-2497204.3004997536" y="3465104.3814553507" type="priority"/>
<node id="e8900" x="-2497169.6536659617" y="3465068.7210674062" type="priority"/>
<node id="942ec" x="-2497122.5301065864" y="3465020.2126707323" type="priority"/>
<node id="be0a7" x="-2497092.3331611417" y="3464988.913541883" type="priority"/>
<node id="f370c" x="-2502163.1166324574" y="3466615.9578118045" type="priority"/>
<node id="2d1c7" x="-2502146.380281931" y="3466692.437746402" type="priority"/>
<node id="960dc" x="-2502004.1156529263" y="3467079.2237080634" type="priority"/>
<node id="a1aa9" x="-2501946.2559185144" y="3467119.9729578868" type="priority"/>
<node id="a615b" x="-2502035.179510073" y="3466953.720254125" type="priority"/>
<node id="92d3f" x="-2502039.6703122333" y="3466815.522835098" type="priority"/>
<node id="dfdbb" x="-2502415.725635588" y="3466534.426219873" type="priority"/>
<node id="1013f" x="-2502392.378098986" y="3466637.476983305" type="priority"/>
<node id="76507" x="-2502366.11307777" y="3466506.680066716" type="priority"/>
<node id="27a01" x="-2502373.05819288" y="3466698.882818604" type="priority"/>
<node id="e41f0" x="-2502371.8654937446" y="3466743.8707162887" type="priority"/>
<node id="0461b" x="-2502327.856385761" y="3467091.0930207" type="priority"/>
<node id="4617b" x="-2502155.4825332584" y="3466418.8656558674" type="priority"/>
<node id="34ab1" x="-2502120.348277408" y="3466610.478278082" type="priority"/>
<node id="4c5a8" x="-2502004.7254889393" y="3467057.474465305" type="priority"/>
<node id="13ad8" x="-2502274.909523157" y="3466441.931047963" type="priority"/>
<node id="72dd5" x="-2502241.5530133173" y="3466610.4527390935" type="priority"/>
<node id="9f613" x="-2502405.618189915" y="3466514.8940865733" type="priority"/>
<node id="a93cd" x="-2502382.248735631" y="3466689.5296953134" type="priority"/>
<node id="0f31c" x="-2502386.305213283" y="3466472.9742512926" type="priority"/>
<node id="7050e" x="-2502159.1880519367" y="3466730.40437592" type="priority"/>
<node id="160de" x="-2502376.495494061" y="3466508.5431318767" type="priority"/>
<node id="5fbb3" x="-2502134.2051899796" y="3466318.141179178" type="priority"/>
<node id="eab2f" x="-2502079.836370158" y="3466610.6739858706" type="priority"/>
<node id="137a0" x="-2501959.7977401027" y="3467093.8280715384" type="priority"/>
<node id="132ab" x="-2501904.6489988053" y="3467149.5948153846" type="priority"/>
<node id="eb1c4" x="-2502175.0134509844" y="3466617.865525743" type="priority"/>
<node id="f38e5" x="-2502426.2697699536" y="3466571.6614228263" type="priority"/>
<node id="a0ec7" x="-2501469.6870547943" y="3467227.511225432" type="priority"/>
<node id="577a3" x="-2502075.0767440414" y="3466742.1292436756" type="priority"/>
<node id="23242" x="-2501835.4123011427" y="3467190.3777276687" type="priority"/>
<node id="74569" x="-2497143.794719425" y="3465948.73512451" type="priority"/>
<node id="30c14" x="-2497132.3220519754" y="3465853.345857827" type="priority"/>
<node id="4db02" x="-2497399.9460014245" y="3466249.861195907" type="priority"/>
<node id="1b3a6" x="-2497149.649063905" y="3465352.3630035" type="priority"/>
<node id="fe9e5" x="-2497133.5087779313" y="3465689.7527575064" type="priority"/>
<node id="afa51" x="-2499933.497298293" y="3466716.8773393985" type="priority"/>
<node id="c139a" x="-2499791.7300786497" y="3466680.869429596" type="priority"/>
<node id="96b73" x="-2499725.5267212912" y="3466667.651260499" type="priority"/>
<node id="29793" x="-2500347.194490565" y="3466792.1838354766" type="priority"/>
<node id="e1dbf" x="-2499363.4551208387" y="3466595.3147694953" type="priority"/>
<node id="e968a" x="-2499216.173703855" y="3466574.0555006154" type="priority"/>
<node id="800f7" x="-2498544.7045766423" y="3466439.4414213765" type="priority"/>
<node id="64c10" x="-2498790.7462727297" y="3466488.44421196" type="priority"/>
<node id="c13d4" x="-2499373.4295576965" y="3466605.18233002" type="priority"/>
<node id="d7fd0" x="-2497205.915220146" y="3465266.662843976" type="priority"/>
<node id="7d6e7" x="-2497170.276314982" y="3465678.4132640623" type="priority"/>
<node id="b5878" x="-2497450.1151900133" y="3465629.8366227727" type="priority"/>
<node id="3653b" x="-2497203.1645670193" y="3465406.208262656" type="priority"/>
<node id="525c5" x="-2497219.050228627" y="3465210.1170742437" type="priority"/>
<node id="df402" x="-2499521.203549221" y="3466030.0827575624" type="priority"/>
<node id="f6084" x="-2499244.908203954" y="3465982.39859885" type="priority"/>
<node id="3b1f8" x="-2497156.9617540427" y="3465675.0170060694" type="priority"/>
<node id="b5d98" x="-2499528.032046064" y="3466046.3089350425" type="priority"/>
<node id="a0884" x="-2499125.76396955" y="3465958.2609903608" type="priority"/>
<node id="a621e" x="-2499791.338333782" y="3466098.743748419" type="priority"/>
<node id="42ee9" x="-2497137.7616528636" y="3465646.0047757365" type="priority"/>
<node id="5eafc" x="-2497171.117496968" y="3465228.238886643" type="priority"/>
<node id="544de" x="-2499298.6496105934" y="3465694.4475161415" type="priority"/>
<node id="d9f69" x="-2500210.6977543496" y="3465810.6139307395" type="priority"/>
<node id="55378" x="-2501342.5996287474" y="3466098.326983515" type="priority"/>
<node id="c804e" x="-2500697.083219998" y="3465978.0314141046" type="priority"/>
<node id="6640d" x="-2500285.9093762366" y="3465889.6220059767" type="priority"/>
<node id="fd11f" x="-2499564.0545977755" y="3465741.1662370935" type="priority"/>
<node id="84563" x="-2499447.5332054095" y="3465726.03474259" type="priority"/>
<node id="3970e" x="-2500328.374749246" y="3465903.7059383243" type="priority"/>
<node id="202cf" x="-2500626.850000117" y="3465968.7158068195" type="priority"/>
<node id="133c0" x="-2499347.6567607387" y="3465713.339758029" type="priority"/>
<node id="d8aaa" x="-2500371.2872047722" y="3465916.662524808" type="priority"/>
<node id="63bb1" x="-2497032.1762321307" y="3465031.2643794306" type="priority"/>
<node id="06ab5" x="-2497472.7811396564" y="3465193.0460301824" type="priority"/>
<node id="a42a8" x="-2497573.7063837387" y="3465213.3447800055" type="priority"/>
<node id="c20d6" x="-2499220.270905157" y="3465537.488286007" type="priority"/>
<node id="8b63d" x="-2500217.2753636525" y="3465717.1113486495" type="priority"/>
<node id="f4e2d" x="-2501344.133527916" y="3466090.5010690596" type="priority"/>
<node id="8c2f5" x="-2500219.4583271053" y="3465707.8080536574" type="priority"/>
<node id="f9393" x="-2499302.4653599816" y="3465542.4335637204" type="priority"/>
<node id="e3407" x="-2496392.482550152" y="3464409.1616137195" type="priority"/>
<node id="df3e0" x="-2500455.290700917" y="3465841.111889148" type="priority"/>
<node id="b9833" x="-2496478.8853785745" y="3464480.6808580644" type="priority"/>
<node id="5b9ad" x="-2496271.127597226" y="3464260.7358813863" type="priority"/>
<node id="2c0a8" x="-2500222.776210163" y="3465336.513004774" type="priority"/>
<node id="610c9" x="-2501440.975885326" y="3465579.4777133316" type="priority"/>
<node id="512b1" x="-2497469.054171673" y="3464772.2844499424" type="priority"/>
<node id="1d4c4" x="-2501063.9271816276" y="3465491.664399227" type="priority"/>
<node id="a199d" x="-2499919.7006349554" y="3465256.5560598467" type="priority"/>
<node id="b9121" x="-2499853.8393839174" y="3465243.4680941906" type="priority"/>
<node id="e1d0d" x="-2498564.9371853014" y="3464991.735819135" type="priority"/>
<node id="b205a" x="-2498730.112678836" y="3465048.2668188624" type="priority"/>
<node id="2ec95" x="-2498846.6657910235" y="3465078.808473071" type="priority"/>
<node id="7660e" x="-2499664.081616522" y="3465247.067577705" type="priority"/>
<node id="ed09f" x="-2500314.843539009" y="3465362.725558307" type="priority"/>
<node id="04c21" x="-2500393.8304586653" y="3465385.243635591" type="priority"/>
<node id="50317" x="-2500490.6643478796" y="3465412.951423846" type="priority"/>
<node id="e7998" x="-2500581.651850404" y="3465439.248218905" type="priority"/>
<node id="00a9f" x="-2501069.2672838895" y="3465535.8845028616" type="priority"/>
<node id="26b8c" x="-2501157.2654937003" y="3465546.291220553" type="priority"/>
<node id="de085" x="-2501238.776961823" y="3465555.3941999767" type="priority"/>
<node id="ed948" x="-2501344.1375087863" y="3465567.8203639835" type="priority"/>
<node id="f88b6" x="-2501527.7530263374" y="3465591.1436098553" type="priority"/>
<node id="59558" x="-2498399.0620179297" y="3464966.5934537556" type="priority"/>
<node id="be902" x="-2498247.2026824923" y="3464943.389600482" type="priority"/>
<node id="8374f" x="-2499723.1615369674" y="3465350.2217366137" type="priority"/>
<node id="89055" x="-2498928.8196426025" y="3465143.5410895273" type="priority"/>
<node id="89c9f" x="-2499732.8771680477" y="3465211.7808217797" type="priority"/>
<node id="9b7a7" x="-2500351.19720183" y="3465138.3643000424" type="priority"/>
<node id="cbef9" x="-2500842.458193195" y="3465123.67651264" type="priority"/>
<node id="fcd53" x="-2498656.1315699816" y="3465047.7082444504" type="priority"/>
<node id="e58d3" x="-2498428.4372277893" y="3465011.1406824104" type="priority"/>
<node id="72b23" x="-2498543.3659554524" y="3464987.752306089" type="priority"/>
<node id="a8f12" x="-2498410.6529492233" y="3464968.3725912534" type="priority"/>
<node id="abe9f" x="-2498642.4086126355" y="3464995.169588346" type="priority"/>
<node id="dd9a8" x="-2498435.2430556295" y="3464966.056073189" type="priority"/>
<node id="2a9c8" x="-2497796.241518814" y="3464845.657712467" type="priority"/>
<node id="fe395" x="-2497995.812680618" y="3464892.9070885703" type="priority"/>
<node id="1188b" x="-2498079.3433126807" y="3464910.0028475225" type="priority"/>
<node id="3571a" x="-2499754.4980890914" y="3465253.458518235" type="priority"/>
<node id="025bc" x="-2499720.2713008802" y="3465364.9272731654" type="priority"/>
<node id="32b95" x="-2499078.76407652" y="3465213.091662962" type="priority"/>
<node id="73e10" x="-2497171.4242121903" y="3464712.710038595" type="priority"/>
<node id="d103b" x="-2498018.124519551" y="3464882.656651452" type="priority"/>
<node id="5a96a" x="-2498409.7146241316" y="3464961.119116092" type="priority"/>
<node id="8cb7f" x="-2500038.1764762225" y="3465286.49778001" type="priority"/>
<node id="c796f" x="-2501677.2740142345" y="3465621.0878908224" type="priority"/>
<node id="a8d6d" x="-2499035.5600242857" y="3465192.0569738783" type="priority"/>
<node id="fa4f0" x="-2499717.8787203105" y="3465357.1927763335" type="priority"/>
<node id="9d8d0" x="-2498357.585787524" y="3464994.9999229033" type="priority"/>
<node id="52f12" x="-2498257.5547529506" y="3464937.8396973126" type="priority"/>
<node id="90a31" x="-2498473.3529590582" y="3464980.960850954" type="priority"/>
<node id="5167f" x="-2500116.2493045893" y="3465309.264609905" type="priority"/>
<node id="0b188" x="-2501997.043089381" y="3465684.6743676662" type="priority"/>
<node id="a8734" x="-2497859.7851326135" y="3464733.1692206264" type="priority"/>
<node id="fae03" x="-2497605.3403848084" y="3464706.5933382437" type="priority"/>
<node id="15a91" x="-2500838.73179714" y="3465130.421123076" type="priority"/>
<node id="77f3f" x="-2498486.6854840624" y="3464997.4152682982" type="priority"/>
<node id="31106" x="-2498843.15117062" y="3465115.365917515" type="priority"/>
<node id="11a5f" x="-2497862.2056780225" y="3464727.4747702666" type="priority"/>
<node id="74d89" x="-2497562.076438208" y="3464711.807453286" type="priority"/>
<node id="da588" x="-2499823.7773018163" y="3465261.0986280832" type="priority"/>
<node id="4e276" x="-2498654.6924717706" y="3465055.902326323" type="priority"/>
<node id="ed82d" x="-2497029.583045727" y="3465740.63313126" type="priority"/>
<node id="03465" x="-2497019.16572034" y="3465320.153259957" type="priority"/>
<node id="f3790" x="-2496994.5833136863" y="3465037.1935659833" type="priority"/>
<node id="ee32c" x="-2497022.089669476" y="3465697.0474045835" type="priority"/>
<node id="2f5fd" x="-2497002.357535231" y="3465101.707675822" type="priority"/>
<node id="c57f2" x="-2506174.8147117207" y="3466959.799313385" type="priority"/>
<node id="ba2f4" x="-2502696.4974708008" y="3465323.101802159" type="priority"/>
<node id="b5327" x="-2503029.198994266" y="3465439.641080465" type="priority"/>
<node id="c548d" x="-2503162.9027904863" y="3465508.042399546" type="priority"/>
<node id="764f5" x="-2502481.0542537933" y="3465277.5156857613" type="priority"/>
<node id="f6854" x="-2502404.1493174676" y="3471027.233583914" type="priority"/>
<node id="cc728" x="-2502019.0771156233" y="3470252.137625359" type="priority"/>
<node id="bea4a" x="-2503242.8918415094" y="3469060.4349063914" type="priority"/>
<node id="ac820" x="-2503110.3973295586" y="3469109.693408491" type="priority"/>
<node id="bfc21" x="-2504438.652426853" y="3467255.4059214815" type="priority"/>
<node id="8ff09" x="-2504374.9119185964" y="3467310.9570675306" type="priority"/>
<node id="d3eca" x="-2502065.2522903276" y="3470168.942464657" type="priority"/>
<node id="926b9" x="-2496006.989502619" y="3463883.1823067702" type="priority"/>
<node id="7fd0b" x="-2496089.0351801887" y="3463971.1033255383" type="priority"/>
<node id="26afb" x="-2495343.4118612176" y="3462577.7074086536" type="priority"/>
<node id="7f425" x="-2495573.1201530397" y="3462989.4548847824" type="priority"/>
<node id="fa293" x="-2495598.228702453" y="3463022.323495075" type="priority"/>
<node id="739fd" x="-2495645.181781999" y="3463081.857124891" type="priority"/>
<node id="5625f" x="-2495683.0120858923" y="3463128.253511764" type="priority"/>
<node id="c0bc7" x="-2495756.6515571824" y="3463239.3292278834" type="priority"/>
<node id="c458c" x="-2495799.7187063918" y="3463297.7141905986" type="priority"/>
<node id="6f6fe" x="-2496170.414752164" y="3464053.1164731644" type="priority"/>
<node id="fb735" x="-2496189.9491402684" y="3464095.010812979" type="priority"/>
<node id="07796" x="-2496047.946566309" y="3463987.963426996" type="priority"/>
<node id="c29ea" x="-2495752.794087845" y="3463427.202008292" type="priority"/>
<node id="c9ba7" x="-2496122.674292666" y="3463956.366785735" type="priority"/>
<node id="dae21" x="-2496149.3439568244" y="3464023.7231708337" type="priority"/>
<node id="b7b07" x="-2495606.485716856" y="3463145.215918407" type="priority"/>
<node id="a74ac" x="-2495261.229438333" y="3462466.0142964143" type="priority"/>
<node id="bdc12" x="-2496096.6505978564" y="3463962.0940786544" type="priority"/>
<node id="68b8e" x="-2496933.057665231" y="3464015.7976428904" type="priority"/>
<node id="e689d" x="-2496117.0388365425" y="3463965.461119838" type="priority"/>
<node id="90a3f" x="-2496095.028701416" y="3463911.712106731" type="priority"/>
<node id="c841c" x="-2495614.818625345" y="3463161.496418901" type="priority"/>
<node id="b5df1" x="-2496065.2922661453" y="3463987.539095886" type="priority"/>
<node id="42bbb" x="-2496023.047942456" y="3463660.0042247213" type="priority"/>
<node id="78fd4" x="-2495572.6363040167" y="3462964.70509501" type="priority"/>
<node id="b8832" x="-2494713.026753153" y="3461444.7782267276" type="priority"/>
<node id="2b593" x="-2494587.702797395" y="3461220.7356630564" type="priority"/>
<node id="7ac30" x="-2493992.347007582" y="3460151.181732837" type="priority"/>
<node id="19d93" x="-2496022.1686638147" y="3463857.939762192" type="priority"/>
<node id="8e95b" x="-2495566.34364703" y="3463036.3671935797" type="priority"/>
<node id="db952" x="-2494739.0488244556" y="3461492.380455587" type="priority"/>
<node id="54808" x="-2495512.321115859" y="3462879.537939308" type="priority"/>
<node id="74857" x="-2496074.002369336" y="3463773.884452071" type="priority"/>
<node id="007d5" x="-2494784.4372097515" y="3461589.282897599" type="priority"/>
<node id="e491a" x="-2495573.5172034074" y="3463060.3784170933" type="priority"/>
<node id="f612e" x="-2494623.3889535125" y="3461300.334001044" type="priority"/>
<node id="7cce9" x="-2494652.6085109063" y="3461352.990545273" type="priority"/>
<node id="0c106" x="-2494613.886800603" y="3461298.6869514007" type="priority"/>
<node id="79838" x="-2494010.8979155384" y="3460216.282936938" type="priority"/>
<node id="ac9ec" x="-2493990.2466110038" y="3460160.6903936304" type="priority"/>
<node id="10196" x="-2493935.194110292" y="3460026.1371375434" type="priority"/>
<node id="07d74" x="-2495643.0004021823" y="3463115.443052143" type="priority"/>
<node id="5b53e" x="-2495439.7341022994" y="3462750.7966911606" type="priority"/>
<node id="06f93" x="-2498595.247106239" y="3465410.8563763015" type="priority"/>
<node id="9f516" x="-2499058.4256832474" y="3465503.1798277535" type="priority"/>
<node id="e555f" x="-2497544.1532296548" y="3465203.09484528" type="priority"/>
<node id="76800" x="-2502672.9895899575" y="3470652.6097365394" type="priority"/>
<node id="69c88" x="-2499107.4711749675" y="3467499.6182817034" type="priority"/>
<node id="fc729" x="-2501503.2038617563" y="3470966.5407436714" type="priority"/>
<node id="21838" x="-2501429.4377940483" y="3471142.7410880737" type="priority"/>
<node id="30a62" x="-2496304.401592954" y="3462020.9167062044" type="priority"/>
<node id="e5851" x="-2494943.27307155" y="3461471.0735068526" type="priority"/>
<node id="ac741" x="-2495007.9492435856" y="3461463.96184716" type="priority"/>
<node id="d2746" x="-2496330.6047091326" y="3462111.353475254" type="priority"/>
<node id="11a47" x="-2495142.4216266293" y="3461442.864417497" type="priority"/>
<node id="85f42" x="-2498904.344957101" y="3465266.67457306" type="priority"/>
<node id="1a2d2" x="-2497903.3098613685" y="3464673.470955286" type="priority"/>
<node id="b42de" x="-2500688.495537996" y="3470018.4375009723" type="priority"/>
<node id="53e91" x="-2494732.0658077165" y="3461496.8531523794" type="priority"/>
<node id="b6a50" x="-2493469.568162015" y="3459476.844365239" type="priority"/>
<node id="6b354" x="-2494375.385491803" y="3461524.1299581025" type="priority"/>
<node id="e01ba" x="-2501729.3400257127" y="3466763.3353058025" type="priority"/>
<node id="7d735" x="-2501815.0598650556" y="3466580.824382525" type="priority"/>
<node id="ba0e3" x="-2501796.6176416115" y="3466576.8447831124" type="priority"/>
<node id="149be" x="-2494693.143128027" y="3461425.367517721" type="priority"/>
<node id="973d7" x="-2494687.6898713103" y="3461415.213370893" type="priority"/>
<node id="5c9e4" x="-2493455.623571708" y="3459476.690306386" type="priority"/>
<node id="3e610" x="-2493881.888061377" y="3459972.5902556553" type="priority"/>
<node id="164b3" x="-2493946.1453051064" y="3460066.109668957" type="priority"/>
<node id="7c1a2" x="-2493971.2971068523" y="3460137.5951316655" type="priority"/>
<node id="c42fe" x="-2494008.247760365" y="3460300.6421655864" type="priority"/>
<node id="4850e" x="-2494016.6286966056" y="3460279.8805042654" type="priority"/>
<node id="0adbc" x="-2494575.7163811345" y="3461270.4026106" type="priority"/>
<node id="e58f4" x="-2494617.170024307" y="3461319.4569747765" type="priority"/>
<node id="42acd" x="-2494643.6539168376" y="3461353.2205760907" type="priority"/>
<node id="8e0cf" x="-2494024.5127391107" y="3460274.866247583" type="priority"/>
<node id="54763" x="-2494565.180231218" y="3461233.7732511684" type="priority"/>
<node id="d1649" x="-2497264.3238179637" y="3465621.395459393" type="priority"/>
<node id="bb77f" x="-2497656.0688704434" y="3465925.5559578966" type="priority"/>
<node id="b686d" x="-2497686.715165458" y="3465797.7328345105" type="priority"/>
<node id="cdb33" x="-2500288.947898678" y="3465672.573827289" type="priority"/>
<node id="c86fc" x="-2499742.8073617127" y="3465563.9609467164" type="priority"/>
<node id="9b7f1" x="-2500268.759297033" y="3465688.3105045967" type="priority"/>
<node id="770a2" x="-2499628.8687822456" y="3465361.233419426" type="priority"/>
<node id="b0998" x="-2499746.8358492916" y="3465384.1398336496" type="priority"/>
<node id="73924" x="-2500689.655832568" y="3465572.111602491" type="priority"/>
<node id="7c073" x="-2501008.065574429" y="3465635.8030579016" type="priority"/>
<node id="bdd18" x="-2500367.8104543635" y="3465487.4315695018" type="priority"/>
<node id="4c04a" x="-2501867.348106109" y="3467169.0856343433" type="priority"/>
<node id="56df4" x="-2502040.2098070094" y="3466600.878171034" type="priority"/>
<node id="777d6" x="-2501240.253367259" y="3467344.64801942" type="priority"/>
<node id="4abc4" x="-2497059.317110921" y="3466332.2713095155" type="priority"/>