<?xml version="1.0" encoding="UTF-8"?>

<!-- generated on 2023-05-16 11:27:48 by Eclipse SUMO netedit Version 1.15.0
-->

<additional xmlns:xsi="http://www.w3.org/2001/XMLSchema-instance" xsi:noNamespaceSchemaLocation="http://sumo.dlr.de/xsd/additional_file.xsd">
    <!-- StoppingPlaces -->
    <busStop id="bs_0" lane="a411e-1_0" startPos="817.20" endPos="917.20"/>
    <busStop id="bs_1" lane="c99ac-1_0" startPos="504.78" endPos="604.78"/>
    <busStop id="bs_2" lane="26189-1_0" startPos="339.61" endPos="439.61"/>
    <busStop id="bs_3" lane="c5d25-1_0" startPos="1133.00" endPos="1233.00"/>
    <busStop id="bs_4" lane="cc3c3-1_0" startPos="142.03" endPos="242.03"/>
    <busStop id="bs_5" lane="84204-2_0" startPos="870.04" endPos="970.04"/>
    <busStop id="bs_6" lane="d8d2c-9_0" startPos="1177.13" endPos="1277.13"/>
    <busStop id="bs_7" lane="a4223-4_0" startPos="885.92" endPos="985.92"/>
</additional>
