<edges>
<!-- Track ad7c18b1-e00f-4a52-a502-2f69477b99be -->
<edge id="b99be-0" from="5bc60" to="ad7c18b1-e00f-4a52-a502-2f69477b99be-km-25-gegen" shape="-2502198.1259712474,3467432.6135298666 -2502222.669270449,3467437.370258187" priority="-1" numLanes="1" speed="110.0" allow="rail rail_electric" spreadType="center" />
<edge id="b99be-0-re" from="ad7c18b1-e00f-4a52-a502-2f69477b99be-km-25-gegen" to="5bc60" shape="-2502222.669270449,3467437.370258187 -2502198.1259712474,3467432.6135298666" priority="-1" numLanes="1" speed="110.0" allow="rail rail_electric" spreadType="center" />
<!-- Track ad7c18b1-e00f-4a52-a502-2f69477b99be -->
<edge id="b99be-1" from="ad7c18b1-e00f-4a52-a502-2f69477b99be-km-25-gegen" to="ad7c18b1-e00f-4a52-a502-2f69477b99be-km-45-in" shape="-2502222.669270449,3467437.370258187 -2502242.30390981,3467441.1756408433" priority="-1" numLanes="1" speed="110.0" allow="rail rail_electric" spreadType="center" />
<edge id="b99be-1-re" from="ad7c18b1-e00f-4a52-a502-2f69477b99be-km-45-in" to="ad7c18b1-e00f-4a52-a502-2f69477b99be-km-25-gegen" shape="-2502242.30390981,3467441.1756408433 -2502222.669270449,3467437.370258187" priority="-1" numLanes="1" speed="110.0" allow="rail rail_electric" spreadType="center" />
<!-- Track ad7c18b1-e00f-4a52-a502-2f69477b99be -->
<edge id="b99be-2" from="ad7c18b1-e00f-4a52-a502-2f69477b99be-km-45-in" to="ad7c18b1-e00f-4a52-a502-2f69477b99be-km-301.5762856547864-gegen" shape="-2502242.30390981,3467441.1756408433 -2502326.879854113,3467457.567275325 -2502493.9023487107,3467491.459708974" priority="-1" numLanes="1" speed="110.0" allow="rail rail_electric" spreadType="center" />
<edge id="b99be-2-re" from="ad7c18b1-e00f-4a52-a502-2f69477b99be-km-301.5762856547864-gegen" to="ad7c18b1-e00f-4a52-a502-2f69477b99be-km-45-in" shape="-2502493.9023487107,3467491.459708974 -2502326.879854113,3467457.567275325 -2502242.30390981,3467441.1756408433" priority="-1" numLanes="1" speed="110.0" allow="rail rail_electric" spreadType="center" />
<!-- Track ad7c18b1-e00f-4a52-a502-2f69477b99be -->
<edge id="b99be-3" from="ad7c18b1-e00f-4a52-a502-2f69477b99be-km-301.5762856547864-gegen" to="ad7c18b1-e00f-4a52-a502-2f69477b99be-km-321.5762856547864-in" shape="-2502493.9023487107,3467491.459708974 -2502513.502873321,3467495.4370743074" priority="-1" numLanes="1" speed="110.0" allow="rail rail_electric" spreadType="center" />
<edge id="b99be-3-re" from="ad7c18b1-e00f-4a52-a502-2f69477b99be-km-321.5762856547864-in" to="ad7c18b1-e00f-4a52-a502-2f69477b99be-km-301.5762856547864-gegen" shape="-2502513.502873321,3467495.4370743074 -2502493.9023487107,3467491.459708974" priority="-1" numLanes="1" speed="110.0" allow="rail rail_electric" spreadType="center" />
<!-- Track ad7c18b1-e00f-4a52-a502-2f69477b99be -->
<edge id="b99be-4" from="ad7c18b1-e00f-4a52-a502-2f69477b99be-km-321.5762856547864-in" to="bb774" shape="-2502513.502873321,3467495.4370743074 -2502538.003529084,3467500.4087809734" priority="-1" numLanes="1" speed="110.0" allow="rail rail_electric" spreadType="center" />
<edge id="b99be-4-re" from="bb774" to="ad7c18b1-e00f-4a52-a502-2f69477b99be-km-321.5762856547864-in" shape="-2502538.003529084,3467500.4087809734 -2502513.502873321,3467495.4370743074" priority="-1" numLanes="1" speed="110.0" allow="rail rail_electric" spreadType="center" />
<!-- Track 27540d33-932c-4e7b-9385-bbc983a89cd1 -->
<edge id="89cd1-0" from="5bc60" to="27540d33-932c-4e7b-9385-bbc983a89cd1-km-25-gegen" shape="-2502198.1259712474,3467432.6135298666 -2502173.6116686147,3467427.7095553116" priority="-1" numLanes="1" speed="110.0" allow="rail rail_electric" spreadType="center" />
<edge id="89cd1-0-re" from="27540d33-932c-4e7b-9385-bbc983a89cd1-km-25-gegen" to="5bc60" shape="-2502173.6116686147,3467427.7095553116 -2502198.1259712474,3467432.6135298666" priority="-1" numLanes="1" speed="110.0" allow="rail rail_electric" spreadType="center" />
<!-- Track 27540d33-932c-4e7b-9385-bbc983a89cd1 -->
<edge id="89cd1-1" from="27540d33-932c-4e7b-9385-bbc983a89cd1-km-25-gegen" to="27540d33-932c-4e7b-9385-bbc983a89cd1-km-45-in" shape="-2502173.6116686147,3467427.7095553116 -2502154.000226509,3467423.7863756674" priority="-1" numLanes="1" speed="110.0" allow="rail rail_electric" spreadType="center" />
<edge id="89cd1-1-re" from="27540d33-932c-4e7b-9385-bbc983a89cd1-km-45-in" to="27540d33-932c-4e7b-9385-bbc983a89cd1-km-25-gegen" shape="-2502154.000226509,3467423.7863756674 -2502173.6116686147,3467427.7095553116" priority="-1" numLanes="1" speed="110.0" allow="rail rail_electric" spreadType="center" />
<!-- Track 27540d33-932c-4e7b-9385-bbc983a89cd1 -->
<edge id="89cd1-2" from="27540d33-932c-4e7b-9385-bbc983a89cd1-km-45-in" to="27540d33-932c-4e7b-9385-bbc983a89cd1-km-145.5616561823125-gegen" shape="-2502154.000226509,3467423.7863756674 -2502055.392271593,3467404.0603035414" priority="-1" numLanes="1" speed="110.0" allow="rail rail_electric" spreadType="center" />
<edge id="89cd1-2-re" from="27540d33-932c-4e7b-9385-bbc983a89cd1-km-145.5616561823125-gegen" to="27540d33-932c-4e7b-9385-bbc983a89cd1-km-45-in" shape="-2502055.392271593,3467404.0603035414 -2502154.000226509,3467423.7863756674" priority="-1" numLanes="1" speed="110.0" allow="rail rail_electric" spreadType="center" />
<!-- Track 27540d33-932c-4e7b-9385-bbc983a89cd1 -->
<edge id="89cd1-3" from="27540d33-932c-4e7b-9385-bbc983a89cd1-km-145.5616561823125-gegen" to="27540d33-932c-4e7b-9385-bbc983a89cd1-km-165.5616561823125-in" shape="-2502055.392271593,3467404.0603035414 -2502035.7808294874,3467400.137123897" priority="-1" numLanes="1" speed="110.0" allow="rail rail_electric" spreadType="center" />
<edge id="89cd1-3-re" from="27540d33-932c-4e7b-9385-bbc983a89cd1-km-165.5616561823125-in" to="27540d33-932c-4e7b-9385-bbc983a89cd1-km-145.5616561823125-gegen" shape="-2502035.7808294874,3467400.137123897 -2502055.392271593,3467404.0603035414" priority="-1" numLanes="1" speed="110.0" allow="rail rail_electric" spreadType="center" />
<!-- Track 27540d33-932c-4e7b-9385-bbc983a89cd1 -->
<edge id="89cd1-4" from="27540d33-932c-4e7b-9385-bbc983a89cd1-km-165.5616561823125-in" to="5d350" shape="-2502035.7808294874,3467400.137123897 -2502011.2665268546,3467395.2331493422" priority="-1" numLanes="1" speed="110.0" allow="rail rail_electric" spreadType="center" />
<edge id="89cd1-4-re" from="5d350" to="27540d33-932c-4e7b-9385-bbc983a89cd1-km-165.5616561823125-in" shape="-2502011.2665268546,3467395.2331493422 -2502035.7808294874,3467400.137123897" priority="-1" numLanes="1" speed="110.0" allow="rail rail_electric" spreadType="center" />
<!-- Track b2f92d99-1c82-4ba3-ba38-1be228b5572a -->
<edge id="5572a-0" from="5bc60" to="b2f92d99-1c82-4ba3-ba38-1be228b5572a-km-25-gegen" shape="-2502198.1259712474,3467432.6135298666 -2502173.3051357637,3467429.6258675884" priority="-1" numLanes="1" speed="110.0" allow="rail rail_electric" spreadType="center" />
<edge id="5572a-0-re" from="b2f92d99-1c82-4ba3-ba38-1be228b5572a-km-25-gegen" to="5bc60" shape="-2502173.3051357637,3467429.6258675884 -2502198.1259712474,3467432.6135298666" priority="-1" numLanes="1" speed="110.0" allow="rail rail_electric" spreadType="center" />
<!-- Track b2f92d99-1c82-4ba3-ba38-1be228b5572a -->
<edge id="5572a-1" from="b2f92d99-1c82-4ba3-ba38-1be228b5572a-km-25-gegen" to="b2f92d99-1c82-4ba3-ba38-1be228b5572a-km-45-in" shape="-2502173.3051357637,3467429.6258675884 -2502153.4484673766,3467427.235737766" priority="-1" numLanes="1" speed="110.0" allow="rail rail_electric" spreadType="center" />
<edge id="5572a-1-re" from="b2f92d99-1c82-4ba3-ba38-1be228b5572a-km-45-in" to="b2f92d99-1c82-4ba3-ba38-1be228b5572a-km-25-gegen" shape="-2502153.4484673766,3467427.235737766 -2502173.3051357637,3467429.6258675884" priority="-1" numLanes="1" speed="110.0" allow="rail rail_electric" spreadType="center" />
<!-- Track b2f92d99-1c82-4ba3-ba38-1be228b5572a -->
<edge id="5572a-2" from="b2f92d99-1c82-4ba3-ba38-1be228b5572a-km-45-in" to="b2f92d99-1c82-4ba3-ba38-1be228b5572a-km-832.2588211144425-gegen" shape="-2502153.4484673766,3467427.235737766 -2501986.5440240223,3467407.1455957647 -2501941.394594235,3467406.669230707 -2501900.14020605,3467408.084832847 -2501830.2628213717,3467412.3299855366 -2501757.781161777,3467419.529616246 -2501699.9119592384,3467418.698338378 -2501637.2374989176,3467415.157012349 -2501580.245985288,3467407.526348047 -2501372.6098940773,3467366.1183687863" priority="-1" numLanes="1" speed="110.0" allow="rail rail_electric" spreadType="center" />
<edge id="5572a-2-re" from="b2f92d99-1c82-4ba3-ba38-1be228b5572a-km-832.2588211144425-gegen" to="b2f92d99-1c82-4ba3-ba38-1be228b5572a-km-45-in" shape="-2501372.6098940773,3467366.1183687863 -2501580.245985288,3467407.526348047 -2501637.2374989176,3467415.157012349 -2501699.9119592384,3467418.698338378 -2501757.781161777,3467419.529616246 -2501830.2628213717,3467412.3299855366 -2501900.14020605,3467408.084832847 -2501941.394594235,3467406.669230707 -2501986.5440240223,3467407.1455957647 -2502153.4484673766,3467427.235737766" priority="-1" numLanes="1" speed="110.0" allow="rail rail_electric" spreadType="center" />
<!-- Track b2f92d99-1c82-4ba3-ba38-1be228b5572a -->
<edge id="5572a-3" from="b2f92d99-1c82-4ba3-ba38-1be228b5572a-km-832.2588211144425-gegen" to="b2f92d99-1c82-4ba3-ba38-1be228b5572a-km-852.2588211144425-in" shape="-2501372.6098940773,3467366.1183687863 -2501352.99611748,3467362.206877052" priority="-1" numLanes="1" speed="110.0" allow="rail rail_electric" spreadType="center" />
<edge id="5572a-3-re" from="b2f92d99-1c82-4ba3-ba38-1be228b5572a-km-852.2588211144425-in" to="b2f92d99-1c82-4ba3-ba38-1be228b5572a-km-832.2588211144425-gegen" shape="-2501352.99611748,3467362.206877052 -2501372.6098940773,3467366.1183687863" priority="-1" numLanes="1" speed="110.0" allow="rail rail_electric" spreadType="center" />
<!-- Track b2f92d99-1c82-4ba3-ba38-1be228b5572a -->
<edge id="5572a-4" from="b2f92d99-1c82-4ba3-ba38-1be228b5572a-km-852.2588211144425-in" to="73a33" shape="-2501352.99611748,3467362.206877052 -2501328.4788967334,3467357.3175123837" priority="-1" numLanes="1" speed="110.0" allow="rail rail_electric" spreadType="center" />
<edge id="5572a-4-re" from="73a33" to="b2f92d99-1c82-4ba3-ba38-1be228b5572a-km-852.2588211144425-in" shape="-2501328.4788967334,3467357.3175123837 -2501352.99611748,3467362.206877052" priority="-1" numLanes="1" speed="110.0" allow="rail rail_electric" spreadType="center" />
<!-- Track ce1d3fd9-1c34-402d-8224-e6a52532f8e5 -->
<edge id="2f8e5-0" from="5d350" to="ce1d3fd9-1c34-402d-8224-e6a52532f8e5-km-25-gegen" shape="-2502011.2665268546,3467395.2331493422 -2501986.4846162554,3467391.938167242" priority="-1" numLanes="1" speed="110.0" allow="rail rail_electric" spreadType="center" />
<edge id="2f8e5-0-re" from="ce1d3fd9-1c34-402d-8224-e6a52532f8e5-km-25-gegen" to="5d350" shape="-2501986.4846162554,3467391.938167242 -2502011.2665268546,3467395.2331493422" priority="-1" numLanes="1" speed="110.0" allow="rail rail_electric" spreadType="center" />
<!-- Track ce1d3fd9-1c34-402d-8224-e6a52532f8e5 -->
<edge id="2f8e5-1" from="ce1d3fd9-1c34-402d-8224-e6a52532f8e5-km-25-gegen" to="ce1d3fd9-1c34-402d-8224-e6a52532f8e5-km-45-in" shape="-2501986.4846162554,3467391.938167242 -2501966.6590877757,3467389.3021815615" priority="-1" numLanes="1" speed="110.0" allow="rail rail_electric" spreadType="center" />
<edge id="2f8e5-1-re" from="ce1d3fd9-1c34-402d-8224-e6a52532f8e5-km-45-in" to="ce1d3fd9-1c34-402d-8224-e6a52532f8e5-km-25-gegen" shape="-2501966.6590877757,3467389.3021815615 -2501986.4846162554,3467391.938167242" priority="-1" numLanes="1" speed="110.0" allow="rail rail_electric" spreadType="center" />
<!-- Track ce1d3fd9-1c34-402d-8224-e6a52532f8e5 -->
<edge id="2f8e5-2" from="ce1d3fd9-1c34-402d-8224-e6a52532f8e5-km-45-in" to="ce1d3fd9-1c34-402d-8224-e6a52532f8e5-km-768.1457216628645-gegen" shape="-2501966.6590877757,3467389.3021815615 -2501902.187891895,3467380.730145294 -2501866.152929621,3467378.21362713 -2501673.0765554016,3467367.3538590707 -2501592.416926997,3467359.140942909 -2501551.447303158,3467353.074182581 -2501505.253120913,3467345.780980693 -2501250.8801331185,3467295.249607361" priority="-1" numLanes="1" speed="110.0" allow="rail rail_electric" spreadType="center" />
<edge id="2f8e5-2-re" from="ce1d3fd9-1c34-402d-8224-e6a52532f8e5-km-768.1457216628645-gegen" to="ce1d3fd9-1c34-402d-8224-e6a52532f8e5-km-45-in" shape="-2501250.8801331185,3467295.249607361 -2501505.253120913,3467345.780980693 -2501551.447303158,3467353.074182581 -2501592.416926997,3467359.140942909 -2501673.0765554016,3467367.3538590707 -2501866.152929621,3467378.21362713 -2501902.187891895,3467380.730145294 -2501966.6590877757,3467389.3021815615" priority="-1" numLanes="1" speed="110.0" allow="rail rail_electric" spreadType="center" />
<!-- Track ce1d3fd9-1c34-402d-8224-e6a52532f8e5 -->
<edge id="2f8e5-3" from="ce1d3fd9-1c34-402d-8224-e6a52532f8e5-km-768.1457216628645-gegen" to="ce1d3fd9-1c34-402d-8224-e6a52532f8e5-km-788.1457216628645-in" shape="-2501250.8801331185,3467295.249607361 -2501231.263445984,3467291.352738634" priority="-1" numLanes="1" speed="110.0" allow="rail rail_electric" spreadType="center" />
<edge id="2f8e5-3-re" from="ce1d3fd9-1c34-402d-8224-e6a52532f8e5-km-788.1457216628645-in" to="ce1d3fd9-1c34-402d-8224-e6a52532f8e5-km-768.1457216628645-gegen" shape="-2501231.263445984,3467291.352738634 -2501250.8801331185,3467295.249607361" priority="-1" numLanes="1" speed="110.0" allow="rail rail_electric" spreadType="center" />
<!-- Track ce1d3fd9-1c34-402d-8224-e6a52532f8e5 -->
<edge id="2f8e5-4" from="ce1d3fd9-1c34-402d-8224-e6a52532f8e5-km-788.1457216628645-in" to="16d42" shape="-2501231.263445984,3467291.352738634 -2501206.7425870663,3467286.4816527255" priority="-1" numLanes="1" speed="110.0" allow="rail rail_electric" spreadType="center" />
<edge id="2f8e5-4-re" from="16d42" to="ce1d3fd9-1c34-402d-8224-e6a52532f8e5-km-788.1457216628645-in" shape="-2501206.7425870663,3467286.4816527255 -2501231.263445984,3467291.352738634" priority="-1" numLanes="1" speed="110.0" allow="rail rail_electric" spreadType="center" />
<!-- Track a1ca8f34-8a7c-49a4-a8da-4b76996a5be4 -->
<edge id="a5be4-0" from="5d350" to="a1ca8f34-8a7c-49a4-a8da-4b76996a5be4-km-25-gegen" shape="-2502011.2665268546,3467395.2331493422 -2501986.867727038,3467389.7835101327" priority="-1" numLanes="1" speed="110.0" allow="rail rail_electric" spreadType="center" />
<edge id="a5be4-0-re" from="a1ca8f34-8a7c-49a4-a8da-4b76996a5be4-km-25-gegen" to="5d350" shape="-2501986.867727038,3467389.7835101327 -2502011.2665268546,3467395.2331493422" priority="-1" numLanes="1" speed="110.0" allow="rail rail_electric" spreadType="center" />
<!-- Track a1ca8f34-8a7c-49a4-a8da-4b76996a5be4 -->
<edge id="a5be4-1" from="a1ca8f34-8a7c-49a4-a8da-4b76996a5be4-km-25-gegen" to="a1ca8f34-8a7c-49a4-a8da-4b76996a5be4-km-45-in" shape="-2501986.867727038,3467389.7835101327 -2501967.348687185,3467385.4237987646" priority="-1" numLanes="1" speed="110.0" allow="rail rail_electric" spreadType="center" />
<edge id="a5be4-1-re" from="a1ca8f34-8a7c-49a4-a8da-4b76996a5be4-km-45-in" to="a1ca8f34-8a7c-49a4-a8da-4b76996a5be4-km-25-gegen" shape="-2501967.348687185,3467385.4237987646 -2501986.867727038,3467389.7835101327" priority="-1" numLanes="1" speed="110.0" allow="rail rail_electric" spreadType="center" />
<!-- Track a1ca8f34-8a7c-49a4-a8da-4b76996a5be4 -->
<edge id="a5be4-2" from="a1ca8f34-8a7c-49a4-a8da-4b76996a5be4-km-45-in" to="a1ca8f34-8a7c-49a4-a8da-4b76996a5be4-km-218.52550007798908-gegen" shape="-2501967.348687185,3467385.4237987646 -2501807.904326056,3467349.8108076043 -2501798.030984935,3467347.447093896" priority="-1" numLanes="1" speed="110.0" allow="rail rail_electric" spreadType="center" />
<edge id="a5be4-2-re" from="a1ca8f34-8a7c-49a4-a8da-4b76996a5be4-km-218.52550007798908-gegen" to="a1ca8f34-8a7c-49a4-a8da-4b76996a5be4-km-45-in" shape="-2501798.030984935,3467347.447093896 -2501807.904326056,3467349.8108076043 -2501967.348687185,3467385.4237987646" priority="-1" numLanes="1" speed="110.0" allow="rail rail_electric" spreadType="center" />
<!-- Track a1ca8f34-8a7c-49a4-a8da-4b76996a5be4 -->
<edge id="a5be4-3" from="a1ca8f34-8a7c-49a4-a8da-4b76996a5be4-km-218.52550007798908-gegen" to="a1ca8f34-8a7c-49a4-a8da-4b76996a5be4-km-238.52550007798908-in" shape="-2501798.030984935,3467347.447093896 -2501778.5806097006,3467342.790603453" priority="-1" numLanes="1" speed="110.0" allow="rail rail_electric" spreadType="center" />
<edge id="a5be4-3-re" from="a1ca8f34-8a7c-49a4-a8da-4b76996a5be4-km-238.52550007798908-in" to="a1ca8f34-8a7c-49a4-a8da-4b76996a5be4-km-218.52550007798908-gegen" shape="-2501778.5806097006,3467342.790603453 -2501798.030984935,3467347.447093896" priority="-1" numLanes="1" speed="110.0" allow="rail rail_electric" spreadType="center" />
<!-- Track a1ca8f34-8a7c-49a4-a8da-4b76996a5be4 -->
<edge id="a5be4-4" from="a1ca8f34-8a7c-49a4-a8da-4b76996a5be4-km-238.52550007798908-in" to="d6647" shape="-2501778.5806097006,3467342.790603453 -2501754.2676406577,3467336.9699903987" priority="-1" numLanes="1" speed="110.0" allow="rail rail_electric" spreadType="center" />
<edge id="a5be4-4-re" from="d6647" to="a1ca8f34-8a7c-49a4-a8da-4b76996a5be4-km-238.52550007798908-in" shape="-2501754.2676406577,3467336.9699903987 -2501778.5806097006,3467342.790603453" priority="-1" numLanes="1" speed="110.0" allow="rail rail_electric" spreadType="center" />
<!-- Track f98cf4cc-e365-4f15-87c1-4801eadd80d0 -->
<edge id="d80d0-0" from="16d42" to="f98cf4cc-e365-4f15-87c1-4801eadd80d0-km-25-gegen" shape="-2501206.7425870663,3467286.4816527255 -2501182.2386736786,3467281.5260267616" priority="-1" numLanes="1" speed="110.0" allow="rail rail_electric" spreadType="center" />
<edge id="d80d0-0-re" from="f98cf4cc-e365-4f15-87c1-4801eadd80d0-km-25-gegen" to="16d42" shape="-2501182.2386736786,3467281.5260267616 -2501206.7425870663,3467286.4816527255" priority="-1" numLanes="1" speed="110.0" allow="rail rail_electric" spreadType="center" />
<!-- Track f98cf4cc-e365-4f15-87c1-4801eadd80d0 -->
<edge id="d80d0-1" from="f98cf4cc-e365-4f15-87c1-4801eadd80d0-km-25-gegen" to="f98cf4cc-e365-4f15-87c1-4801eadd80d0-km-45-in" shape="-2501182.2386736786,3467281.5260267616 -2501162.6355429688,3467277.5615259903" priority="-1" numLanes="1" speed="110.0" allow="rail rail_electric" spreadType="center" />
<edge id="d80d0-1-re" from="f98cf4cc-e365-4f15-87c1-4801eadd80d0-km-45-in" to="f98cf4cc-e365-4f15-87c1-4801eadd80d0-km-25-gegen" shape="-2501162.6355429688,3467277.5615259903 -2501182.2386736786,3467281.5260267616" priority="-1" numLanes="1" speed="110.0" allow="rail rail_electric" spreadType="center" />
<!-- Track f98cf4cc-e365-4f15-87c1-4801eadd80d0 -->
<edge id="d80d0-2" from="f98cf4cc-e365-4f15-87c1-4801eadd80d0-km-45-in" to="f98cf4cc-e365-4f15-87c1-4801eadd80d0-km-149.7673894741766-gegen" shape="-2501162.6355429688,3467277.5615259903 -2501059.947101468,3467256.7940061716" priority="-1" numLanes="1" speed="110.0" allow="rail rail_electric" spreadType="center" />
<edge id="d80d0-2-re" from="f98cf4cc-e365-4f15-87c1-4801eadd80d0-km-149.7673894741766-gegen" to="f98cf4cc-e365-4f15-87c1-4801eadd80d0-km-45-in" shape="-2501059.947101468,3467256.7940061716 -2501162.6355429688,3467277.5615259903" priority="-1" numLanes="1" speed="110.0" allow="rail rail_electric" spreadType="center" />
<!-- Track f98cf4cc-e365-4f15-87c1-4801eadd80d0 -->
<edge id="d80d0-3" from="f98cf4cc-e365-4f15-87c1-4801eadd80d0-km-149.7673894741766-gegen" to="f98cf4cc-e365-4f15-87c1-4801eadd80d0-km-169.7673894741766-in" shape="-2501059.947101468,3467256.7940061716 -2501040.343970758,3467252.8295054003" priority="-1" numLanes="1" speed="110.0" allow="rail rail_electric" spreadType="center" />
<edge id="d80d0-3-re" from="f98cf4cc-e365-4f15-87c1-4801eadd80d0-km-169.7673894741766-in" to="f98cf4cc-e365-4f15-87c1-4801eadd80d0-km-149.7673894741766-gegen" shape="-2501040.343970758,3467252.8295054003 -2501059.947101468,3467256.7940061716" priority="-1" numLanes="1" speed="110.0" allow="rail rail_electric" spreadType="center" />
<!-- Track f98cf4cc-e365-4f15-87c1-4801eadd80d0 -->
<edge id="d80d0-4" from="f98cf4cc-e365-4f15-87c1-4801eadd80d0-km-169.7673894741766-in" to="99da4" shape="-2501040.343970758,3467252.8295054003 -2501015.8400573703,3467247.8738794364" priority="-1" numLanes="1" speed="110.0" allow="rail rail_electric" spreadType="center" />
<edge id="d80d0-4-re" from="99da4" to="f98cf4cc-e365-4f15-87c1-4801eadd80d0-km-169.7673894741766-in" shape="-2501015.8400573703,3467247.8738794364 -2501040.343970758,3467252.8295054003" priority="-1" numLanes="1" speed="110.0" allow="rail rail_electric" spreadType="center" />
<!-- Track 434bd482-5190-4a82-88c6-781ede44e3d9 -->
<edge id="4e3d9-0" from="16d42" to="434bd482-5190-4a82-88c6-781ede44e3d9-km-25-gegen" shape="-2501206.7425870663,3467286.4816527255 -2501231.489801964,3467290.0278274002" priority="-1" numLanes="1" speed="110.0" allow="rail rail_electric" spreadType="center" />
<edge id="4e3d9-0-re" from="434bd482-5190-4a82-88c6-781ede44e3d9-km-25-gegen" to="16d42" shape="-2501231.489801964,3467290.0278274002 -2501206.7425870663,3467286.4816527255" priority="-1" numLanes="1" speed="110.0" allow="rail rail_electric" spreadType="center" />
<!-- Track 434bd482-5190-4a82-88c6-781ede44e3d9 -->
<edge id="4e3d9-1" from="434bd482-5190-4a82-88c6-781ede44e3d9-km-25-gegen" to="434bd482-5190-4a82-88c6-781ede44e3d9-km-45-in" shape="-2501231.489801964,3467290.0278274002 -2501251.2875738814,3467292.86476714" priority="-1" numLanes="1" speed="110.0" allow="rail rail_electric" spreadType="center" />
<edge id="4e3d9-1-re" from="434bd482-5190-4a82-88c6-781ede44e3d9-km-45-in" to="434bd482-5190-4a82-88c6-781ede44e3d9-km-25-gegen" shape="-2501251.2875738814,3467292.86476714 -2501231.489801964,3467290.0278274002" priority="-1" numLanes="1" speed="110.0" allow="rail rail_electric" spreadType="center" />
<!-- Track 434bd482-5190-4a82-88c6-781ede44e3d9 -->
<edge id="4e3d9-2" from="434bd482-5190-4a82-88c6-781ede44e3d9-km-45-in" to="50e70" shape="-2501251.2875738814,3467292.86476714 -2501292.2642674847,3467298.736559732 -2501351.8286421327,3467306.9248945564 -2501777.896236745,3467364.0153826177" priority="-1" numLanes="1" speed="110.0" allow="rail rail_electric" spreadType="center" />
<edge id="4e3d9-2-re" from="50e70" to="434bd482-5190-4a82-88c6-781ede44e3d9-km-45-in" shape="-2501777.896236745,3467364.0153826177 -2501351.8286421327,3467306.9248945564 -2501292.2642674847,3467298.736559732 -2501251.2875738814,3467292.86476714" priority="-1" numLanes="1" speed="110.0" allow="rail rail_electric" spreadType="center" />
<!-- Track e32401dd-28a0-43b5-824c-19a241137862 -->
<edge id="37862-0" from="99da4" to="e32401dd-28a0-43b5-824c-19a241137862-km-25-gegen" shape="-2501015.8400573703,3467247.8738794364 -2500991.319573685,3467243.0009050015" priority="-1" numLanes="1" speed="110.0" allow="rail rail_electric" spreadType="center" />
<edge id="37862-0-re" from="e32401dd-28a0-43b5-824c-19a241137862-km-25-gegen" to="99da4" shape="-2500991.319573685,3467243.0009050015 -2501015.8400573703,3467247.8738794364" priority="-1" numLanes="1" speed="110.0" allow="rail rail_electric" spreadType="center" />
<!-- Track e32401dd-28a0-43b5-824c-19a241137862 -->
<edge id="37862-1" from="e32401dd-28a0-43b5-824c-19a241137862-km-25-gegen" to="e32401dd-28a0-43b5-824c-19a241137862-km-45-in" shape="-2500991.319573685,3467243.0009050015 -2500971.703186737,3467239.102525453" priority="-1" numLanes="1" speed="110.0" allow="rail rail_electric" spreadType="center" />
<edge id="37862-1-re" from="e32401dd-28a0-43b5-824c-19a241137862-km-45-in" to="e32401dd-28a0-43b5-824c-19a241137862-km-25-gegen" shape="-2500971.703186737,3467239.102525453 -2500991.319573685,3467243.0009050015" priority="-1" numLanes="1" speed="110.0" allow="rail rail_electric" spreadType="center" />
<!-- Track e32401dd-28a0-43b5-824c-19a241137862 -->
<edge id="37862-2" from="e32401dd-28a0-43b5-824c-19a241137862-km-45-in" to="e32401dd-28a0-43b5-824c-19a241137862-km-664.7733628877847-gegen" shape="-2500971.703186737,3467239.102525453 -2500363.817481409,3467118.2969353376" priority="-1" numLanes="1" speed="110.0" allow="rail rail_electric" spreadType="center" />
<edge id="37862-2-re" from="e32401dd-28a0-43b5-824c-19a241137862-km-664.7733628877847-gegen" to="e32401dd-28a0-43b5-824c-19a241137862-km-45-in" shape="-2500363.817481409,3467118.2969353376 -2500971.703186737,3467239.102525453" priority="-1" numLanes="1" speed="110.0" allow="rail rail_electric" spreadType="center" />
<!-- Track e32401dd-28a0-43b5-824c-19a241137862 -->
<edge id="37862-3" from="e32401dd-28a0-43b5-824c-19a241137862-km-664.7733628877847-gegen" to="e32401dd-28a0-43b5-824c-19a241137862-km-684.7733628877847-in" shape="-2500363.817481409,3467118.2969353376 -2500344.2010944607,3467114.398555789" priority="-1" numLanes="1" speed="110.0" allow="rail rail_electric" spreadType="center" />
<edge id="37862-3-re" from="e32401dd-28a0-43b5-824c-19a241137862-km-684.7733628877847-in" to="e32401dd-28a0-43b5-824c-19a241137862-km-664.7733628877847-gegen" shape="-2500344.2010944607,3467114.398555789 -2500363.817481409,3467118.2969353376" priority="-1" numLanes="1" speed="110.0" allow="rail rail_electric" spreadType="center" />
<!-- Track e32401dd-28a0-43b5-824c-19a241137862 -->
<edge id="37862-4" from="e32401dd-28a0-43b5-824c-19a241137862-km-684.7733628877847-in" to="59328" shape="-2500344.2010944607,3467114.398555789 -2500319.680610776,3467109.5255813543" priority="-1" numLanes="1" speed="110.0" allow="rail rail_electric" spreadType="center" />
<edge id="37862-4-re" from="59328" to="e32401dd-28a0-43b5-824c-19a241137862-km-684.7733628877847-in" shape="-2500319.680610776,3467109.5255813543 -2500344.2010944607,3467114.398555789" priority="-1" numLanes="1" speed="110.0" allow="rail rail_electric" spreadType="center" />
<!-- Track 4694a019-cb15-4b1c-ab62-db9f7835f4ca -->
<edge id="5f4ca-0" from="99da4" to="4694a019-cb15-4b1c-ab62-db9f7835f4ca-km-25-gegen" shape="-2501015.8400573703,3467247.8738794364 -2501040.129426962,3467253.792200551" priority="-1" numLanes="1" speed="110.0" allow="rail rail_electric" spreadType="center" />
<edge id="5f4ca-0-re" from="4694a019-cb15-4b1c-ab62-db9f7835f4ca-km-25-gegen" to="99da4" shape="-2501040.129426962,3467253.792200551 -2501015.8400573703,3467247.8738794364" priority="-1" numLanes="1" speed="110.0" allow="rail rail_electric" spreadType="center" />
<!-- Track 4694a019-cb15-4b1c-ab62-db9f7835f4ca -->
<edge id="5f4ca-1" from="4694a019-cb15-4b1c-ab62-db9f7835f4ca-km-25-gegen" to="4694a019-cb15-4b1c-ab62-db9f7835f4ca-km-45-in" shape="-2501040.129426962,3467253.792200551 -2501059.560922636,3467258.526857442" priority="-1" numLanes="1" speed="110.0" allow="rail rail_electric" spreadType="center" />
<edge id="5f4ca-1-re" from="4694a019-cb15-4b1c-ab62-db9f7835f4ca-km-45-in" to="4694a019-cb15-4b1c-ab62-db9f7835f4ca-km-25-gegen" shape="-2501059.560922636,3467258.526857442 -2501040.129426962,3467253.792200551" priority="-1" numLanes="1" speed="110.0" allow="rail rail_electric" spreadType="center" />
<!-- Track 4694a019-cb15-4b1c-ab62-db9f7835f4ca -->
<edge id="5f4ca-2" from="4694a019-cb15-4b1c-ab62-db9f7835f4ca-km-45-in" to="557e5" shape="-2501059.560922636,3467258.526857442 -2501115.083613891,3467272.0554554053 -2501236.739845654,3467305.6705410834 -2501274.012567208,3467312.6615284346 -2501684.7521156543,3467394.7215760183" priority="-1" numLanes="1" speed="110.0" allow="rail rail_electric" spreadType="center" />
<edge id="5f4ca-2-re" from="557e5" to="4694a019-cb15-4b1c-ab62-db9f7835f4ca-km-45-in" shape="-2501684.7521156543,3467394.7215760183 -2501274.012567208,3467312.6615284346 -2501236.739845654,3467305.6705410834 -2501115.083613891,3467272.0554554053 -2501059.560922636,3467258.526857442" priority="-1" numLanes="1" speed="110.0" allow="rail rail_electric" spreadType="center" />
<!-- Track 1ee20c7f-4a78-4d44-851a-801ce9a79fa0 -->
<edge id="79fa0-0" from="48746" to="1ee20c7f-4a78-4d44-851a-801ce9a79fa0-km-25-gegen" shape="-2498540.5476426897,3466763.493575601 -2498516.147492651,3466758.0499850498" priority="-1" numLanes="1" speed="110.0" allow="rail rail_electric" spreadType="center" />
<edge id="79fa0-0-re" from="1ee20c7f-4a78-4d44-851a-801ce9a79fa0-km-25-gegen" to="48746" shape="-2498516.147492651,3466758.0499850498 -2498540.5476426897,3466763.493575601" priority="-1" numLanes="1" speed="110.0" allow="rail rail_electric" spreadType="center" />
<!-- Track 1ee20c7f-4a78-4d44-851a-801ce9a79fa0 -->
<edge id="79fa0-1" from="1ee20c7f-4a78-4d44-851a-801ce9a79fa0-km-25-gegen" to="1ee20c7f-4a78-4d44-851a-801ce9a79fa0-km-45-in" shape="-2498516.147492651,3466758.0499850498 -2498496.62737262,3466753.695112609" priority="-1" numLanes="1" speed="110.0" allow="rail rail_electric" spreadType="center" />
<edge id="79fa0-1-re" from="1ee20c7f-4a78-4d44-851a-801ce9a79fa0-km-45-in" to="1ee20c7f-4a78-4d44-851a-801ce9a79fa0-km-25-gegen" shape="-2498496.62737262,3466753.695112609 -2498516.147492651,3466758.0499850498" priority="-1" numLanes="1" speed="110.0" allow="rail rail_electric" spreadType="center" />
<!-- Track 1ee20c7f-4a78-4d44-851a-801ce9a79fa0 -->
<edge id="79fa0-2" from="1ee20c7f-4a78-4d44-851a-801ce9a79fa0-km-45-in" to="1ee20c7f-4a78-4d44-851a-801ce9a79fa0-km-234.45431792963808-gegen" shape="-2498496.62737262,3466753.695112609 -2498402.661352981,3466732.7316129655 -2498329.9658797192,3466713.124746185 -2498312.5482047037,3466709.062629299" priority="-1" numLanes="1" speed="110.0" allow="rail rail_electric" spreadType="center" />
<edge id="79fa0-2-re" from="1ee20c7f-4a78-4d44-851a-801ce9a79fa0-km-234.45431792963808-gegen" to="1ee20c7f-4a78-4d44-851a-801ce9a79fa0-km-45-in" shape="-2498312.5482047037,3466709.062629299 -2498329.9658797192,3466713.124746185 -2498402.661352981,3466732.7316129655 -2498496.62737262,3466753.695112609" priority="-1" numLanes="1" speed="110.0" allow="rail rail_electric" spreadType="center" />