<connections>
<!-- Point a8d1e 5508d7e0-9626-4d33-ad5c-c023dcba8d1e -->
<connection from="aea0c-0" to="0c07e-0"/>
<connection from="aea0c-0" to="0c07e-0-re"/>
<connection from="aea0c-0-re" to="0c07e-0"/>
<connection from="aea0c-0-re" to="0c07e-0-re"/>
<connection from="4a178-0" to="0c07e-0"/>
<connection from="4a178-0" to="0c07e-0-re"/>
<connection from="4a178-0-re" to="0c07e-0"/>
<connection from="4a178-0-re" to="0c07e-0-re"/>
<connection from="0c07e-0" to="aea0c-0"/>
<connection from="0c07e-0" to="4a178-0"/>
<connection from="0c07e-0" to="aea0c-0-re"/>
<connection from="0c07e-0" to="4a178-0-re"/>
<connection from="0c07e-0-re" to="aea0c-0"/>
<connection from="0c07e-0-re" to="4a178-0"/>
<connection from="0c07e-0-re" to="aea0c-0-re"/>
<connection from="0c07e-0-re" to="4a178-0-re"/>
<!-- Point ea602 3a330a8a-4f5a-45e5-924c-dc7c14cea602 -->
<connection from="50b1b-0" to="4a178-2"/>
<connection from="50b1b-0" to="4a178-2-re"/>
<connection from="50b1b-0-re" to="4a178-2"/>
<connection from="50b1b-0-re" to="4a178-2-re"/>
<connection from="03df7-0" to="4a178-2"/>
<connection from="03df7-0" to="4a178-2-re"/>
<connection from="03df7-0-re" to="4a178-2"/>
<connection from="03df7-0-re" to="4a178-2-re"/>
<connection from="4a178-2" to="50b1b-0"/>
<connection from="4a178-2" to="03df7-0"/>
<connection from="4a178-2" to="50b1b-0-re"/>
<connection from="4a178-2" to="03df7-0-re"/>
<connection from="4a178-2-re" to="50b1b-0"/>
<connection from="4a178-2-re" to="03df7-0"/>
<connection from="4a178-2-re" to="50b1b-0-re"/>
<connection from="4a178-2-re" to="03df7-0-re"/>
<!-- Point 2d5b6 f3677f15-9e1a-4269-bfce-dcfd8d52d5b6 -->
<connection from="0e173-0" to="2fb5c-0"/>
<connection from="0e173-0" to="2fb5c-0-re"/>
<connection from="0e173-0-re" to="2fb5c-0"/>
<connection from="0e173-0-re" to="2fb5c-0-re"/>
<connection from="50b1b-2" to="2fb5c-0"/>
<connection from="50b1b-2" to="2fb5c-0-re"/>
<connection from="50b1b-2-re" to="2fb5c-0"/>
<connection from="50b1b-2-re" to="2fb5c-0-re"/>
<connection from="2fb5c-0" to="0e173-0"/>
<connection from="2fb5c-0" to="50b1b-2"/>
<connection from="2fb5c-0" to="0e173-0-re"/>
<connection from="2fb5c-0" to="50b1b-2-re"/>
<connection from="2fb5c-0-re" to="0e173-0"/>
<connection from="2fb5c-0-re" to="50b1b-2"/>
<connection from="2fb5c-0-re" to="0e173-0-re"/>
<connection from="2fb5c-0-re" to="50b1b-2-re"/>
<!-- Point 8ee11 adeeaa15-981e-4784-8f61-8b1c3718ee11 -->
<connection from="2fb5c-2" to="1d191-0"/>
<connection from="2fb5c-2" to="1d191-0-re"/>
<connection from="2fb5c-2-re" to="1d191-0"/>
<connection from="2fb5c-2-re" to="1d191-0-re"/>
<connection from="4a20c-0" to="1d191-0"/>
<connection from="4a20c-0" to="1d191-0-re"/>
<connection from="4a20c-0-re" to="1d191-0"/>
<connection from="4a20c-0-re" to="1d191-0-re"/>
<connection from="1d191-0" to="2fb5c-2"/>
<connection from="1d191-0" to="4a20c-0"/>
<connection from="1d191-0" to="2fb5c-2-re"/>
<connection from="1d191-0" to="4a20c-0-re"/>
<connection from="1d191-0-re" to="2fb5c-2"/>
<connection from="1d191-0-re" to="4a20c-0"/>
<connection from="1d191-0-re" to="2fb5c-2-re"/>
<connection from="1d191-0-re" to="4a20c-0-re"/>
<!-- Point dab47 3ee3afbe-d916-4d45-ac8d-3360850dab47 -->
<connection from="ed4f0-0" to="2bb59-0"/>
<connection from="ed4f0-0" to="2bb59-0-re"/>
<connection from="ed4f0-0-re" to="2bb59-0"/>
<connection from="ed4f0-0-re" to="2bb59-0-re"/>
<connection from="79b5a-0" to="2bb59-0"/>
<connection from="79b5a-0" to="2bb59-0-re"/>
<connection from="79b5a-0-re" to="2bb59-0"/>
<connection from="79b5a-0-re" to="2bb59-0-re"/>
<connection from="2bb59-0" to="ed4f0-0"/>
<connection from="2bb59-0" to="79b5a-0"/>
<connection from="2bb59-0" to="ed4f0-0-re"/>
<connection from="2bb59-0" to="79b5a-0-re"/>
<connection from="2bb59-0-re" to="ed4f0-0"/>
<connection from="2bb59-0-re" to="79b5a-0"/>
<connection from="2bb59-0-re" to="ed4f0-0-re"/>
<connection from="2bb59-0-re" to="79b5a-0-re"/>
<!-- Point 21316 5c588935-9feb-4627-9ad4-2fcb25721316 -->
<connection from="a6fcb-0" to="1bf8d-0"/>
<connection from="a6fcb-0" to="1bf8d-0-re"/>
<connection from="a6fcb-0-re" to="1bf8d-0"/>
<connection from="a6fcb-0-re" to="1bf8d-0-re"/>
<connection from="79b5a-2" to="1bf8d-0"/>
<connection from="79b5a-2" to="1bf8d-0-re"/>
<connection from="79b5a-2-re" to="1bf8d-0"/>
<connection from="79b5a-2-re" to="1bf8d-0-re"/>
<connection from="1bf8d-0" to="a6fcb-0"/>
<connection from="1bf8d-0" to="79b5a-2"/>
<connection from="1bf8d-0" to="a6fcb-0-re"/>
<connection from="1bf8d-0" to="79b5a-2-re"/>
<connection from="1bf8d-0-re" to="a6fcb-0"/>
<connection from="1bf8d-0-re" to="79b5a-2"/>
<connection from="1bf8d-0-re" to="a6fcb-0-re"/>
<connection from="1bf8d-0-re" to="79b5a-2-re"/>
<!-- Point 0db60 e8928a1f-d816-48d3-ae75-016250f0db60 -->
<connection from="e22c1-0" to="136a5-0"/>
<connection from="e22c1-0" to="136a5-0-re"/>
<connection from="e22c1-0-re" to="136a5-0"/>
<connection from="e22c1-0-re" to="136a5-0-re"/>
<connection from="f220a-0" to="136a5-0"/>
<connection from="f220a-0" to="136a5-0-re"/>
<connection from="f220a-0-re" to="136a5-0"/>
<connection from="f220a-0-re" to="136a5-0-re"/>
<connection from="136a5-0" to="e22c1-0"/>
<connection from="136a5-0" to="f220a-0"/>
<connection from="136a5-0" to="e22c1-0-re"/>
<connection from="136a5-0" to="f220a-0-re"/>
<connection from="136a5-0-re" to="e22c1-0"/>
<connection from="136a5-0-re" to="f220a-0"/>
<connection from="136a5-0-re" to="e22c1-0-re"/>
<connection from="136a5-0-re" to="f220a-0-re"/>
<!-- Point 7d91e ec0df152-8fb1-48e1-8bed-56887827d91e -->
<connection from="c8b3b-0" to="81494-0"/>
<connection from="c8b3b-0" to="81494-0-re"/>
<connection from="c8b3b-0-re" to="81494-0"/>
<connection from="c8b3b-0-re" to="81494-0-re"/>
<connection from="659b0-0" to="81494-0"/>
<connection from="659b0-0" to="81494-0-re"/>
<connection from="659b0-0-re" to="81494-0"/>
<connection from="659b0-0-re" to="81494-0-re"/>
<connection from="81494-0" to="c8b3b-0"/>
<connection from="81494-0" to="659b0-0"/>
<connection from="81494-0" to="c8b3b-0-re"/>
<connection from="81494-0" to="659b0-0-re"/>
<connection from="81494-0-re" to="c8b3b-0"/>
<connection from="81494-0-re" to="659b0-0"/>
<connection from="81494-0-re" to="c8b3b-0-re"/>
<connection from="81494-0-re" to="659b0-0-re"/>
<!-- Point a9b23 d3fedbd0-46e8-4d40-a8d6-78d6649a9b23 -->
<connection from="8a61e-0" to="659b0-0"/>
<connection from="8a61e-0" to="659b0-0-re"/>
<connection from="8a61e-0-re" to="659b0-0"/>
<connection from="8a61e-0-re" to="659b0-0-re"/>
<connection from="9193b-0" to="659b0-0"/>
<connection from="9193b-0" to="659b0-0-re"/>
<connection from="9193b-0-re" to="659b0-0"/>
<connection from="9193b-0-re" to="659b0-0-re"/>
<connection from="659b0-0" to="8a61e-0"/>
<connection from="659b0-0" to="9193b-0"/>
<connection from="659b0-0" to="8a61e-0-re"/>
<connection from="659b0-0" to="9193b-0-re"/>
<connection from="659b0-0-re" to="8a61e-0"/>
<connection from="659b0-0-re" to="9193b-0"/>
<connection from="659b0-0-re" to="8a61e-0-re"/>
<connection from="659b0-0-re" to="9193b-0-re"/>
<!-- Point fa609 2530cac6-a3f1-4695-935b-ce79a82fa609 -->
<connection from="6b90d-0" to="2a019-0"/>
<connection from="6b90d-0" to="2a019-0-re"/>
<connection from="6b90d-0-re" to="2a019-0"/>
<connection from="6b90d-0-re" to="2a019-0-re"/>
<connection from="9193b-2" to="2a019-0"/>
<connection from="9193b-2" to="2a019-0-re"/>
<connection from="9193b-2-re" to="2a019-0"/>
<connection from="9193b-2-re" to="2a019-0-re"/>
<connection from="2a019-0" to="6b90d-0"/>
<connection from="2a019-0" to="9193b-2"/>
<connection from="2a019-0" to="6b90d-0-re"/>
<connection from="2a019-0" to="9193b-2-re"/>
<connection from="2a019-0-re" to="6b90d-0"/>
<connection from="2a019-0-re" to="9193b-2"/>
<connection from="2a019-0-re" to="6b90d-0-re"/>
<connection from="2a019-0-re" to="9193b-2-re"/>
<!-- Point 75b17 17c7fe0b-b5b9-4312-89c1-5c92af675b17 -->
<connection from="2a019-0" to="3c124-0"/>
<connection from="2a019-0" to="3c124-0-re"/>
<connection from="2a019-0-re" to="3c124-0"/>
<connection from="2a019-0-re" to="3c124-0-re"/>
<connection from="cca63-0" to="3c124-0"/>
<connection from="cca63-0" to="3c124-0-re"/>
<connection from="cca63-0-re" to="3c124-0"/>
<connection from="cca63-0-re" to="3c124-0-re"/>
<connection from="3c124-0" to="2a019-0"/>
<connection from="3c124-0" to="cca63-0"/>
<connection from="3c124-0" to="2a019-0-re"/>
<connection from="3c124-0" to="cca63-0-re"/>
<connection from="3c124-0-re" to="2a019-0"/>
<connection from="3c124-0-re" to="cca63-0"/>
<connection from="3c124-0-re" to="2a019-0-re"/>
<connection from="3c124-0-re" to="cca63-0-re"/>
<!-- Point 006d9 a230ed62-2c0c-4bbd-a11a-14e90d5006d9 -->
<connection from="3c124-0" to="709a1-0"/>
<connection from="3c124-0" to="709a1-0-re"/>
<connection from="3c124-0-re" to="709a1-0"/>
<connection from="3c124-0-re" to="709a1-0-re"/>
<connection from="d9713-0" to="709a1-0"/>
<connection from="d9713-0" to="709a1-0-re"/>
<connection from="d9713-0-re" to="709a1-0"/>
<connection from="d9713-0-re" to="709a1-0-re"/>
<connection from="709a1-0" to="3c124-0"/>
<connection from="709a1-0" to="d9713-0"/>
<connection from="709a1-0" to="3c124-0-re"/>
<connection from="709a1-0" to="d9713-0-re"/>
<connection from="709a1-0-re" to="3c124-0"/>
<connection from="709a1-0-re" to="d9713-0"/>
<connection from="709a1-0-re" to="3c124-0-re"/>
<connection from="709a1-0-re" to="d9713-0-re"/>
<!-- Point 2db54 292a755f-f519-4d42-9351-d1ef7572db54 -->
<connection from="7beea-0" to="709a1-2"/>
<connection from="7beea-0" to="709a1-2-re"/>
<connection from="7beea-0-re" to="709a1-2"/>
<connection from="7beea-0-re" to="709a1-2-re"/>
<connection from="96ded-0" to="709a1-2"/>
<connection from="96ded-0" to="709a1-2-re"/>
<connection from="96ded-0-re" to="709a1-2"/>
<connection from="96ded-0-re" to="709a1-2-re"/>
<connection from="709a1-2" to="7beea-0"/>
<connection from="709a1-2" to="96ded-0"/>
<connection from="709a1-2" to="7beea-0-re"/>
<connection from="709a1-2" to="96ded-0-re"/>
<connection from="709a1-2-re" to="7beea-0"/>
<connection from="709a1-2-re" to="96ded-0"/>
<connection from="709a1-2-re" to="7beea-0-re"/>
<connection from="709a1-2-re" to="96ded-0-re"/>
<!-- Point 7e236 00a297d5-291b-4b66-b21d-25edd517e236 -->
<connection from="17785-0" to="18c7a-0"/>
<connection from="17785-0" to="18c7a-0-re"/>
<connection from="17785-0-re" to="18c7a-0"/>
<connection from="17785-0-re" to="18c7a-0-re"/>
<connection from="96ded-2" to="18c7a-0"/>
<connection from="96ded-2" to="18c7a-0-re"/>
<connection from="96ded-2-re" to="18c7a-0"/>
<connection from="96ded-2-re" to="18c7a-0-re"/>
<connection from="18c7a-0" to="17785-0"/>
<connection from="18c7a-0" to="96ded-2"/>
<connection from="18c7a-0" to="17785-0-re"/>
<connection from="18c7a-0" to="96ded-2-re"/>
<connection from="18c7a-0-re" to="17785-0"/>
<connection from="18c7a-0-re" to="96ded-2"/>
<connection from="18c7a-0-re" to="17785-0-re"/>
<connection from="18c7a-0-re" to="96ded-2-re"/>

<!-- Point 8e2a9 0f2a2939-918c-4727-8a9f-8dbeea48e2a9 -->
<connection from="86ae0-0" to="68cc4-0"/>
<connection from="86ae0-0" to="68cc4-0-re"/>
<connection from="86ae0-0-re" to="68cc4-0"/>
<connection from="86ae0-0-re" to="68cc4-0-re"/>
<connection from="1e090-0" to="68cc4-0"/>
<connection from="1e090-0" to="68cc4-0-re"/>
<connection from="1e090-0-re" to="68cc4-0"/>
<connection from="1e090-0-re" to="68cc4-0-re"/>
<connection from="68cc4-0" to="86ae0-0"/>
<connection from="68cc4-0" to="1e090-0"/>
<connection from="68cc4-0" to="86ae0-0-re"/>
<connection from="68cc4-0" to="1e090-0-re"/>
<connection from="68cc4-0-re" to="86ae0-0"/>
<connection from="68cc4-0-re" to="1e090-0"/>
<connection from="68cc4-0-re" to="86ae0-0-re"/>
<connection from="68cc4-0-re" to="1e090-0-re"/>
<!-- Point cb2c8 67d11ff8-0202-493e-922d-38e81e6cb2c8 -->
<connection from="86ae0-2" to="c6a03-0"/>
<connection from="86ae0-2" to="c6a03-0-re"/>
<connection from="86ae0-2-re" to="c6a03-0"/>
<connection from="86ae0-2-re" to="c6a03-0-re"/>
<connection from="9352a-0" to="c6a03-0"/>
<connection from="9352a-0" to="c6a03-0-re"/>
<connection from="9352a-0-re" to="c6a03-0"/>
<connection from="9352a-0-re" to="c6a03-0-re"/>
<connection from="c6a03-0" to="86ae0-2"/>
<connection from="c6a03-0" to="9352a-0"/>
<connection from="c6a03-0" to="86ae0-2-re"/>
<connection from="c6a03-0" to="9352a-0-re"/>
<connection from="c6a03-0-re" to="86ae0-2"/>
<connection from="c6a03-0-re" to="9352a-0"/>
<connection from="c6a03-0-re" to="86ae0-2-re"/>
<connection from="c6a03-0-re" to="9352a-0-re"/>
<!-- Point f8db3 fef172ad-0496-490c-9a1f-457605af8db3 -->
<connection from="54b9d-0" to="c6a03-0"/>
<connection from="54b9d-0" to="c6a03-0-re"/>
<connection from="54b9d-0-re" to="c6a03-0"/>
<connection from="54b9d-0-re" to="c6a03-0-re"/>
<connection from="fcd0d-0" to="c6a03-0"/>
<connection from="fcd0d-0" to="c6a03-0-re"/>
<connection from="fcd0d-0-re" to="c6a03-0"/>
<connection from="fcd0d-0-re" to="c6a03-0-re"/>
<connection from="c6a03-0" to="54b9d-0"/>
<connection from="c6a03-0" to="fcd0d-0"/>
<connection from="c6a03-0" to="54b9d-0-re"/>
<connection from="c6a03-0" to="fcd0d-0-re"/>
<connection from="c6a03-0-re" to="54b9d-0"/>
<connection from="c6a03-0-re" to="fcd0d-0"/>
<connection from="c6a03-0-re" to="54b9d-0-re"/>
<connection from="c6a03-0-re" to="fcd0d-0-re"/>
<!-- Point 871e9 075b9627-3adc-4fa4-add5-3d1b33d871e9 -->
<connection from="43407-0" to="7ce15-0"/>
<connection from="43407-0" to="7ce15-0-re"/>
<connection from="43407-0-re" to="7ce15-0"/>
<connection from="43407-0-re" to="7ce15-0-re"/>
<connection from="1122e-0" to="7ce15-0"/>
<connection from="1122e-0" to="7ce15-0-re"/>
<connection from="1122e-0-re" to="7ce15-0"/>
<connection from="1122e-0-re" to="7ce15-0-re"/>
<connection from="7ce15-0" to="43407-0"/>
<connection from="7ce15-0" to="1122e-0"/>
<connection from="7ce15-0" to="43407-0-re"/>
<connection from="7ce15-0" to="1122e-0-re"/>
<connection from="7ce15-0-re" to="43407-0"/>
<connection from="7ce15-0-re" to="1122e-0"/>
<connection from="7ce15-0-re" to="43407-0-re"/>
<connection from="7ce15-0-re" to="1122e-0-re"/>
<!-- Point eadea e4067194-afa6-4002-802c-104b81eeadea -->
<connection from="3252c-0" to="1bf8d-2"/>
<connection from="3252c-0" to="1bf8d-2-re"/>
<connection from="3252c-0-re" to="1bf8d-2"/>
<connection from="3252c-0-re" to="1bf8d-2-re"/>
<connection from="c7f4f-0" to="1bf8d-2"/>
<connection from="c7f4f-0" to="1bf8d-2-re"/>
<connection from="c7f4f-0-re" to="1bf8d-2"/>
<connection from="c7f4f-0-re" to="1bf8d-2-re"/>
<connection from="1bf8d-2" to="3252c-0"/>
<connection from="1bf8d-2" to="c7f4f-0"/>
<connection from="1bf8d-2" to="3252c-0-re"/>
<connection from="1bf8d-2" to="c7f4f-0-re"/>
<connection from="1bf8d-2-re" to="3252c-0"/>
<connection from="1bf8d-2-re" to="c7f4f-0"/>
<connection from="1bf8d-2-re" to="3252c-0-re"/>
<connection from="1bf8d-2-re" to="c7f4f-0-re"/>
<!-- Point f0c32 abadda29-7b33-4c93-a1b1-670a152f0c32 -->
<connection from="113d8-0" to="8ad00-0"/>
<connection from="113d8-0" to="8ad00-0-re"/>
<connection from="113d8-0-re" to="8ad00-0"/>
<connection from="113d8-0-re" to="8ad00-0-re"/>
<connection from="3252c-2" to="8ad00-0"/>
<connection from="3252c-2" to="8ad00-0-re"/>
<connection from="3252c-2-re" to="8ad00-0"/>
<connection from="3252c-2-re" to="8ad00-0-re"/>
<connection from="8ad00-0" to="113d8-0"/>
<connection from="8ad00-0" to="3252c-2"/>
<connection from="8ad00-0" to="113d8-0-re"/>
<connection from="8ad00-0" to="3252c-2-re"/>
<connection from="8ad00-0-re" to="113d8-0"/>
<connection from="8ad00-0-re" to="3252c-2"/>
<connection from="8ad00-0-re" to="113d8-0-re"/>
<connection from="8ad00-0-re" to="3252c-2-re"/>
<!-- Point 5067f 764b58e3-3f66-4350-9b82-db20a345067f -->
<connection from="1fd96-0" to="8ad00-0"/>
<connection from="1fd96-0" to="8ad00-0-re"/>
<connection from="1fd96-0-re" to="8ad00-0"/>
<connection from="1fd96-0-re" to="8ad00-0-re"/>
<connection from="9a693-0" to="8ad00-0"/>
<connection from="9a693-0" to="8ad00-0-re"/>
<connection from="9a693-0-re" to="8ad00-0"/>
<connection from="9a693-0-re" to="8ad00-0-re"/>
<connection from="8ad00-0" to="1fd96-0"/>
<connection from="8ad00-0" to="9a693-0"/>
<connection from="8ad00-0" to="1fd96-0-re"/>
<connection from="8ad00-0" to="9a693-0-re"/>
<connection from="8ad00-0-re" to="1fd96-0"/>
<connection from="8ad00-0-re" to="9a693-0"/>
<connection from="8ad00-0-re" to="1fd96-0-re"/>
<connection from="8ad00-0-re" to="9a693-0-re"/>
<!-- Point 5fc1c fa1604e8-6faa-4dba-8eda-1cd3a8b5fc1c -->
<connection from="9a693-2" to="136a5-0"/>
<connection from="9a693-2" to="136a5-0-re"/>
<connection from="9a693-2-re" to="136a5-0"/>
<connection from="9a693-2-re" to="136a5-0-re"/>
<connection from="713ce-0" to="136a5-0"/>
<connection from="713ce-0" to="136a5-0-re"/>
<connection from="713ce-0-re" to="136a5-0"/>
<connection from="713ce-0-re" to="136a5-0-re"/>
<connection from="136a5-0" to="9a693-2"/>
<connection from="136a5-0" to="713ce-0"/>
<connection from="136a5-0" to="9a693-2-re"/>
<connection from="136a5-0" to="713ce-0-re"/>
<connection from="136a5-0-re" to="9a693-2"/>
<connection from="136a5-0-re" to="713ce-0"/>
<connection from="136a5-0-re" to="9a693-2-re"/>
<connection from="136a5-0-re" to="713ce-0-re"/>
<!-- Point ad14e 94fc3872-71e4-45ca-acdb-cb7b1c9ad14e -->
<connection from="dd7c5-0" to="82978-0"/>
<connection from="dd7c5-0" to="82978-0-re"/>
<connection from="dd7c5-0-re" to="82978-0"/>
<connection from="dd7c5-0-re" to="82978-0-re"/>
<connection from="7ce15-14" to="82978-0"/>
<connection from="7ce15-14" to="82978-0-re"/>
<connection from="7ce15-14-re" to="82978-0"/>
<connection from="7ce15-14-re" to="82978-0-re"/>
<connection from="82978-0" to="dd7c5-0"/>
<connection from="82978-0" to="7ce15-14"/>
<connection from="82978-0" to="dd7c5-0-re"/>
<connection from="82978-0" to="7ce15-14-re"/>
<connection from="82978-0-re" to="dd7c5-0"/>
<connection from="82978-0-re" to="7ce15-14"/>
<connection from="82978-0-re" to="dd7c5-0-re"/>
<connection from="82978-0-re" to="7ce15-14-re"/>

<!-- Point 0b5ff 24b4f538-ad70-41dc-9516-1419f130b5ff -->
<connection from="cf542-3" to="96b4b-0"/>
<connection from="cf542-3" to="96b4b-0-re"/>
<connection from="cf542-3-re" to="96b4b-0"/>
<connection from="cf542-3-re" to="96b4b-0-re"/>
<connection from="9c293-0" to="96b4b-0"/>
<connection from="9c293-0" to="96b4b-0-re"/>
<connection from="9c293-0-re" to="96b4b-0"/>
<connection from="9c293-0-re" to="96b4b-0-re"/>
<connection from="96b4b-0" to="cf542-3"/>
<connection from="96b4b-0" to="9c293-0"/>
<connection from="96b4b-0" to="cf542-3-re"/>
<connection from="96b4b-0" to="9c293-0-re"/>
<connection from="96b4b-0-re" to="cf542-3"/>
<connection from="96b4b-0-re" to="9c293-0"/>
<connection from="96b4b-0-re" to="cf542-3-re"/>
<connection from="96b4b-0-re" to="9c293-0-re"/>

<!-- Point f3e00 0de1cf81-f5ec-42ff-b2cf-3fe713af3e00 -->
<connection from="96b4b-2" to="9dae0-0"/>
<connection from="96b4b-2" to="9dae0-0-re"/>
<connection from="96b4b-2-re" to="9dae0-0"/>
<connection from="96b4b-2-re" to="9dae0-0-re"/>
<connection from="d0072-0" to="9dae0-0"/>
<connection from="d0072-0" to="9dae0-0-re"/>
<connection from="d0072-0-re" to="9dae0-0"/>
<connection from="d0072-0-re" to="9dae0-0-re"/>
<connection from="9dae0-0" to="96b4b-2"/>
<connection from="9dae0-0" to="d0072-0"/>
<connection from="9dae0-0" to="96b4b-2-re"/>
<connection from="9dae0-0" to="d0072-0-re"/>
<connection from="9dae0-0-re" to="96b4b-2"/>
<connection from="9dae0-0-re" to="d0072-0"/>
<connection from="9dae0-0-re" to="96b4b-2-re"/>
<connection from="9dae0-0-re" to="d0072-0-re"/>
<!-- Point 7c837 c6390057-158f-4874-9343-58115967c837 -->
<connection from="bf809-0" to="63099-0"/>
<connection from="bf809-0" to="63099-0-re"/>
<connection from="bf809-0-re" to="63099-0"/>
<connection from="bf809-0-re" to="63099-0-re"/>
<connection from="9dae0-2" to="63099-0"/>
<connection from="9dae0-2" to="63099-0-re"/>
<connection from="9dae0-2-re" to="63099-0"/>
<connection from="9dae0-2-re" to="63099-0-re"/>
<connection from="63099-0" to="bf809-0"/>
<connection from="63099-0" to="9dae0-2"/>
<connection from="63099-0" to="bf809-0-re"/>
<connection from="63099-0" to="9dae0-2-re"/>
<connection from="63099-0-re" to="bf809-0"/>
<connection from="63099-0-re" to="9dae0-2"/>
<connection from="63099-0-re" to="bf809-0-re"/>
<connection from="63099-0-re" to="9dae0-2-re"/>
<!-- Point 3da42 ce8c44e1-e6fa-49cf-a6b6-76dd6fa3da42 -->
<connection from="4c429-0" to="63099-0"/>
<connection from="4c429-0" to="63099-0-re"/>
<connection from="4c429-0-re" to="63099-0"/>
<connection from="4c429-0-re" to="63099-0-re"/>
<connection from="517e1-0" to="63099-0"/>
<connection from="517e1-0" to="63099-0-re"/>
<connection from="517e1-0-re" to="63099-0"/>
<connection from="517e1-0-re" to="63099-0-re"/>
<connection from="63099-0" to="4c429-0"/>
<connection from="63099-0" to="517e1-0"/>
<connection from="63099-0" to="4c429-0-re"/>
<connection from="63099-0" to="517e1-0-re"/>
<connection from="63099-0-re" to="4c429-0"/>
<connection from="63099-0-re" to="517e1-0"/>
<connection from="63099-0-re" to="4c429-0-re"/>
<connection from="63099-0-re" to="517e1-0-re"/>
<!-- Point ac0b7 6b562b72-185b-48f3-a26f-d888556ac0b7 -->
<connection from="d6b49-0" to="9a62f-0"/>
<connection from="d6b49-0" to="9a62f-0-re"/>
<connection from="d6b49-0-re" to="9a62f-0"/>
<connection from="d6b49-0-re" to="9a62f-0-re"/>
<connection from="4c429-2" to="9a62f-0"/>
<connection from="4c429-2" to="9a62f-0-re"/>
<connection from="4c429-2-re" to="9a62f-0"/>
<connection from="4c429-2-re" to="9a62f-0-re"/>
<connection from="9a62f-0" to="d6b49-0"/>
<connection from="9a62f-0" to="4c429-2"/>
<connection from="9a62f-0" to="d6b49-0-re"/>
<connection from="9a62f-0" to="4c429-2-re"/>
<connection from="9a62f-0-re" to="d6b49-0"/>
<connection from="9a62f-0-re" to="4c429-2"/>
<connection from="9a62f-0-re" to="d6b49-0-re"/>
<connection from="9a62f-0-re" to="4c429-2-re"/>
<!-- Point c54e5 1e68b5cd-c2d6-42c0-9219-e713a78c54e5 -->
<connection from="78815-0" to="9a62f-2"/>
<connection from="78815-0" to="9a62f-2-re"/>
<connection from="78815-0-re" to="9a62f-2"/>
<connection from="78815-0-re" to="9a62f-2-re"/>
<connection from="02304-0" to="9a62f-2"/>
<connection from="02304-0" to="9a62f-2-re"/>
<connection from="02304-0-re" to="9a62f-2"/>
<connection from="02304-0-re" to="9a62f-2-re"/>
<connection from="9a62f-2" to="78815-0"/>
<connection from="9a62f-2" to="02304-0"/>
<connection from="9a62f-2" to="78815-0-re"/>
<connection from="9a62f-2" to="02304-0-re"/>
<connection from="9a62f-2-re" to="78815-0"/>
<connection from="9a62f-2-re" to="02304-0"/>
<connection from="9a62f-2-re" to="78815-0-re"/>
<connection from="9a62f-2-re" to="02304-0-re"/>
<!-- Point 97dae f7b50463-6287-4828-9e2a-a7d969a97dae -->
<connection from="b77e6-0" to="6398b-0"/>
<connection from="b77e6-0" to="6398b-0-re"/>
<connection from="b77e6-0-re" to="6398b-0"/>
<connection from="b77e6-0-re" to="6398b-0-re"/>
<connection from="78815-2" to="6398b-0"/>
<connection from="78815-2" to="6398b-0-re"/>
<connection from="78815-2-re" to="6398b-0"/>
<connection from="78815-2-re" to="6398b-0-re"/>
<connection from="6398b-0" to="b77e6-0"/>
<connection from="6398b-0" to="78815-2"/>
<connection from="6398b-0" to="b77e6-0-re"/>
<connection from="6398b-0" to="78815-2-re"/>
<connection from="6398b-0-re" to="b77e6-0"/>
<connection from="6398b-0-re" to="78815-2"/>
<connection from="6398b-0-re" to="b77e6-0-re"/>
<connection from="6398b-0-re" to="78815-2-re"/>
<!-- Point 33d50 96396d58-d6c8-4aee-be9b-84cb60c33d50 -->
<connection from="6398b-2" to="b099e-0"/>
<connection from="6398b-2" to="b099e-0-re"/>
<connection from="6398b-2-re" to="b099e-0"/>
<connection from="6398b-2-re" to="b099e-0-re"/>
<connection from="af3a0-0" to="b099e-0"/>
<connection from="af3a0-0" to="b099e-0-re"/>
<connection from="af3a0-0-re" to="b099e-0"/>
<connection from="af3a0-0-re" to="b099e-0-re"/>
<connection from="b099e-0" to="6398b-2"/>
<connection from="b099e-0" to="af3a0-0"/>
<connection from="b099e-0" to="6398b-2-re"/>
<connection from="b099e-0" to="af3a0-0-re"/>
<connection from="b099e-0-re" to="6398b-2"/>
<connection from="b099e-0-re" to="af3a0-0"/>
<connection from="b099e-0-re" to="6398b-2-re"/>
<connection from="b099e-0-re" to="af3a0-0-re"/>
<!-- Point 3a665 bb2896bc-a31f-4ea0-8228-27fe3b23a665 -->
<connection from="38e80-0" to="19cfa-0"/>
<connection from="38e80-0" to="19cfa-0-re"/>
<connection from="38e80-0-re" to="19cfa-0"/>
<connection from="38e80-0-re" to="19cfa-0-re"/>
<connection from="7af54-0" to="19cfa-0"/>
<connection from="7af54-0" to="19cfa-0-re"/>
<connection from="7af54-0-re" to="19cfa-0"/>
<connection from="7af54-0-re" to="19cfa-0-re"/>
<connection from="19cfa-0" to="38e80-0"/>
<connection from="19cfa-0" to="7af54-0"/>
<connection from="19cfa-0" to="38e80-0-re"/>
<connection from="19cfa-0" to="7af54-0-re"/>
<connection from="19cfa-0-re" to="38e80-0"/>
<connection from="19cfa-0-re" to="7af54-0"/>
<connection from="19cfa-0-re" to="38e80-0-re"/>
<connection from="19cfa-0-re" to="7af54-0-re"/>
<!-- Point 9a555 3401de35-500e-4a7f-8a2f-c30af049a555 -->
<connection from="38e80-2" to="b23e4-0"/>
<connection from="38e80-2" to="b23e4-0-re"/>
<connection from="38e80-2-re" to="b23e4-0"/>
<connection from="38e80-2-re" to="b23e4-0-re"/>
<connection from="7c65a-0" to="b23e4-0"/>
<connection from="7c65a-0" to="b23e4-0-re"/>
<connection from="7c65a-0-re" to="b23e4-0"/>
<connection from="7c65a-0-re" to="b23e4-0-re"/>
<connection from="b23e4-0" to="38e80-2"/>
<connection from="b23e4-0" to="7c65a-0"/>
<connection from="b23e4-0" to="38e80-2-re"/>
<connection from="b23e4-0" to="7c65a-0-re"/>
<connection from="b23e4-0-re" to="38e80-2"/>
<connection from="b23e4-0-re" to="7c65a-0"/>
<connection from="b23e4-0-re" to="38e80-2-re"/>
<connection from="b23e4-0-re" to="7c65a-0-re"/>
<!-- Point 3e3d6 59f821f1-2a0d-4597-80d4-2e8b6f13e3d6 -->
<connection from="1fd96-2" to="b23e4-0"/>
<connection from="1fd96-2" to="b23e4-0-re"/>
<connection from="1fd96-2-re" to="b23e4-0"/>
<connection from="1fd96-2-re" to="b23e4-0-re"/>
<connection from="dc35d-0" to="b23e4-0"/>
<connection from="dc35d-0" to="b23e4-0-re"/>
<connection from="dc35d-0-re" to="b23e4-0"/>
<connection from="dc35d-0-re" to="b23e4-0-re"/>
<connection from="b23e4-0" to="1fd96-2"/>
<connection from="b23e4-0" to="dc35d-0"/>
<connection from="b23e4-0" to="1fd96-2-re"/>
<connection from="b23e4-0" to="dc35d-0-re"/>
<connection from="b23e4-0-re" to="1fd96-2"/>
<connection from="b23e4-0-re" to="dc35d-0"/>
<connection from="b23e4-0-re" to="1fd96-2-re"/>
<connection from="b23e4-0-re" to="dc35d-0-re"/>
<!-- Point c5e16 24c0fa0d-f3a4-48b9-b170-db0dc39c5e16 -->
<connection from="93b06-0" to="dc35d-0"/>
<connection from="93b06-0" to="dc35d-0-re"/>
<connection from="93b06-0-re" to="dc35d-0"/>
<connection from="93b06-0-re" to="dc35d-0-re"/>
<connection from="ee7aa-0" to="dc35d-0"/>
<connection from="ee7aa-0" to="dc35d-0-re"/>
<connection from="ee7aa-0-re" to="dc35d-0"/>
<connection from="ee7aa-0-re" to="dc35d-0-re"/>
<connection from="dc35d-0" to="93b06-0"/>
<connection from="dc35d-0" to="ee7aa-0"/>
<connection from="dc35d-0" to="93b06-0-re"/>
<connection from="dc35d-0" to="ee7aa-0-re"/>
<connection from="dc35d-0-re" to="93b06-0"/>
<connection from="dc35d-0-re" to="ee7aa-0"/>
<connection from="dc35d-0-re" to="93b06-0-re"/>
<connection from="dc35d-0-re" to="ee7aa-0-re"/>
<!-- Point 605fb 6c6d3dc9-1914-42e6-a205-ef5f0e4605fb -->
<connection from="d6b49-2" to="b5d89-0"/>
<connection from="d6b49-2" to="b5d89-0-re"/>
<connection from="d6b49-2-re" to="b5d89-0"/>
<connection from="d6b49-2-re" to="b5d89-0-re"/>
<connection from="2d923-0" to="b5d89-0"/>
<connection from="2d923-0" to="b5d89-0-re"/>
<connection from="2d923-0-re" to="b5d89-0"/>
<connection from="2d923-0-re" to="b5d89-0-re"/>
<connection from="b5d89-0" to="d6b49-2"/>
<connection from="b5d89-0" to="2d923-0"/>
<connection from="b5d89-0" to="d6b49-2-re"/>
<connection from="b5d89-0" to="2d923-0-re"/>
<connection from="b5d89-0-re" to="d6b49-2"/>
<connection from="b5d89-0-re" to="2d923-0"/>
<connection from="b5d89-0-re" to="d6b49-2-re"/>
<connection from="b5d89-0-re" to="2d923-0-re"/>
<!-- Point 5ae00 328a94a3-625b-414b-8960-c641e875ae00 -->
<connection from="64335-0" to="b5d89-0"/>
<connection from="64335-0" to="b5d89-0-re"/>
<connection from="64335-0-re" to="b5d89-0"/>
<connection from="64335-0-re" to="b5d89-0-re"/>
<connection from="517e1-2" to="b5d89-0"/>
<connection from="517e1-2" to="b5d89-0-re"/>
<connection from="517e1-2-re" to="b5d89-0"/>
<connection from="517e1-2-re" to="b5d89-0-re"/>
<connection from="b5d89-0" to="64335-0"/>
<connection from="b5d89-0" to="517e1-2"/>
<connection from="b5d89-0" to="64335-0-re"/>
<connection from="b5d89-0" to="517e1-2-re"/>
<connection from="b5d89-0-re" to="64335-0"/>
<connection from="b5d89-0-re" to="517e1-2"/>
<connection from="b5d89-0-re" to="64335-0-re"/>
<connection from="b5d89-0-re" to="517e1-2-re"/>
<!-- Point e34cd c387bebc-b475-4ecc-aa36-eb6df9ce34cd -->
<connection from="dbf76-0" to="b9af8-0"/>
<connection from="dbf76-0" to="b9af8-0-re"/>
<connection from="dbf76-0-re" to="b9af8-0"/>
<connection from="dbf76-0-re" to="b9af8-0-re"/>
<connection from="131de-0" to="b9af8-0"/>
<connection from="131de-0" to="b9af8-0-re"/>
<connection from="131de-0-re" to="b9af8-0"/>
<connection from="131de-0-re" to="b9af8-0-re"/>
<connection from="b9af8-0" to="dbf76-0"/>
<connection from="b9af8-0" to="131de-0"/>
<connection from="b9af8-0" to="dbf76-0-re"/>
<connection from="b9af8-0" to="131de-0-re"/>
<connection from="b9af8-0-re" to="dbf76-0"/>
<connection from="b9af8-0-re" to="131de-0"/>
<connection from="b9af8-0-re" to="dbf76-0-re"/>
<connection from="b9af8-0-re" to="131de-0-re"/>
<!-- Point 2ac1b b441a3f7-9f85-4faf-8261-ee426822ac1b -->
<connection from="dbf76-2" to="6ba6c-0"/>
<connection from="dbf76-2" to="6ba6c-0-re"/>
<connection from="dbf76-2-re" to="6ba6c-0"/>
<connection from="dbf76-2-re" to="6ba6c-0-re"/>
<connection from="79203-0" to="6ba6c-0"/>
<connection from="79203-0" to="6ba6c-0-re"/>
<connection from="79203-0-re" to="6ba6c-0"/>