<connections>
<!-- Point 37c79 53c7cb27-f2b6-41db-b380-4d5a29037c79 -->
<connection from="c21c1-0" to="274dc-0"/>
<connection from="c21c1-0" to="274dc-0-re"/>
<connection from="c21c1-0-re" to="274dc-0"/>
<connection from="c21c1-0-re" to="274dc-0-re"/>
<connection from="f0642-0" to="274dc-0"/>
<connection from="f0642-0" to="274dc-0-re"/>
<connection from="f0642-0-re" to="274dc-0"/>
<connection from="f0642-0-re" to="274dc-0-re"/>
<connection from="274dc-0" to="c21c1-0"/>
<connection from="274dc-0" to="f0642-0"/>
<connection from="274dc-0" to="c21c1-0-re"/>
<connection from="274dc-0" to="f0642-0-re"/>
<connection from="274dc-0-re" to="c21c1-0"/>
<connection from="274dc-0-re" to="f0642-0"/>
<connection from="274dc-0-re" to="c21c1-0-re"/>
<connection from="274dc-0-re" to="f0642-0-re"/>
<!-- Point 25058 1e6b6aaa-7d24-4ce8-b797-362432d25058 -->
<connection from="2ddea-0" to="f0642-2"/>
<connection from="2ddea-0" to="f0642-2-re"/>
<connection from="2ddea-0-re" to="f0642-2"/>
<connection from="2ddea-0-re" to="f0642-2-re"/>
<connection from="6df86-0" to="f0642-2"/>
<connection from="6df86-0" to="f0642-2-re"/>
<connection from="6df86-0-re" to="f0642-2"/>
<connection from="6df86-0-re" to="f0642-2-re"/>
<connection from="f0642-2" to="2ddea-0"/>
<connection from="f0642-2" to="6df86-0"/>
<connection from="f0642-2" to="2ddea-0-re"/>
<connection from="f0642-2" to="6df86-0-re"/>
<connection from="f0642-2-re" to="2ddea-0"/>
<connection from="f0642-2-re" to="6df86-0"/>
<connection from="f0642-2-re" to="2ddea-0-re"/>
<connection from="f0642-2-re" to="6df86-0-re"/>
<!-- Point 016be c1767451-060e-4ac4-8ab1-ad223f8016be -->
<connection from="c4427-0" to="959a4-0"/>
<connection from="c4427-0" to="959a4-0-re"/>
<connection from="c4427-0-re" to="959a4-0"/>
<connection from="c4427-0-re" to="959a4-0-re"/>
<connection from="2ddea-2" to="959a4-0"/>
<connection from="2ddea-2" to="959a4-0-re"/>
<connection from="2ddea-2-re" to="959a4-0"/>
<connection from="2ddea-2-re" to="959a4-0-re"/>
<connection from="959a4-0" to="c4427-0"/>
<connection from="959a4-0" to="2ddea-2"/>
<connection from="959a4-0" to="c4427-0-re"/>
<connection from="959a4-0" to="2ddea-2-re"/>
<connection from="959a4-0-re" to="c4427-0"/>
<connection from="959a4-0-re" to="2ddea-2"/>
<connection from="959a4-0-re" to="c4427-0-re"/>
<connection from="959a4-0-re" to="2ddea-2-re"/>
<!-- Point 02be8 8bb158fc-2278-48ae-ae8b-d145e9e02be8 -->
<connection from="959a4-2" to="d1a04-0"/>
<connection from="959a4-2" to="d1a04-0-re"/>
<connection from="959a4-2-re" to="d1a04-0"/>
<connection from="959a4-2-re" to="d1a04-0-re"/>
<connection from="b8eb1-0" to="d1a04-0"/>
<connection from="b8eb1-0" to="d1a04-0-re"/>
<connection from="b8eb1-0-re" to="d1a04-0"/>
<connection from="b8eb1-0-re" to="d1a04-0-re"/>
<connection from="d1a04-0" to="959a4-2"/>
<connection from="d1a04-0" to="b8eb1-0"/>
<connection from="d1a04-0" to="959a4-2-re"/>
<connection from="d1a04-0" to="b8eb1-0-re"/>
<connection from="d1a04-0-re" to="959a4-2"/>
<connection from="d1a04-0-re" to="b8eb1-0"/>
<connection from="d1a04-0-re" to="959a4-2-re"/>
<connection from="d1a04-0-re" to="b8eb1-0-re"/>
<!-- Point 47614 28c7d391-6155-4d93-abf3-e72b1cc47614 -->
<connection from="29af9-0" to="da8b3-0"/>
<connection from="29af9-0" to="da8b3-0-re"/>
<connection from="29af9-0-re" to="da8b3-0"/>
<connection from="29af9-0-re" to="da8b3-0-re"/>
<connection from="d2b86-0" to="da8b3-0"/>
<connection from="d2b86-0" to="da8b3-0-re"/>
<connection from="d2b86-0-re" to="da8b3-0"/>
<connection from="d2b86-0-re" to="da8b3-0-re"/>
<connection from="da8b3-0" to="29af9-0"/>
<connection from="da8b3-0" to="d2b86-0"/>
<connection from="da8b3-0" to="29af9-0-re"/>
<connection from="da8b3-0" to="d2b86-0-re"/>
<connection from="da8b3-0-re" to="29af9-0"/>
<connection from="da8b3-0-re" to="d2b86-0"/>
<connection from="da8b3-0-re" to="29af9-0-re"/>
<connection from="da8b3-0-re" to="d2b86-0-re"/>
<!-- Point cbed0 4a0bd24c-2247-41a6-9740-0185f89cbed0 -->
<connection from="639f6-0" to="24f4b-0"/>
<connection from="639f6-0" to="24f4b-0-re"/>
<connection from="639f6-0-re" to="24f4b-0"/>
<connection from="639f6-0-re" to="24f4b-0-re"/>
<connection from="d2b86-2" to="24f4b-0"/>
<connection from="d2b86-2" to="24f4b-0-re"/>
<connection from="d2b86-2-re" to="24f4b-0"/>
<connection from="d2b86-2-re" to="24f4b-0-re"/>
<connection from="24f4b-0" to="639f6-0"/>
<connection from="24f4b-0" to="d2b86-2"/>
<connection from="24f4b-0" to="639f6-0-re"/>
<connection from="24f4b-0" to="d2b86-2-re"/>
<connection from="24f4b-0-re" to="639f6-0"/>
<connection from="24f4b-0-re" to="d2b86-2"/>
<connection from="24f4b-0-re" to="639f6-0-re"/>
<connection from="24f4b-0-re" to="d2b86-2-re"/>
<!-- Point 10c63 0a9f65cd-1ac4-439d-9fa3-e9e51f310c63 -->
<connection from="41acf-0" to="bebe6-0"/>
<connection from="41acf-0" to="bebe6-0-re"/>
<connection from="41acf-0-re" to="bebe6-0"/>
<connection from="41acf-0-re" to="bebe6-0-re"/>
<connection from="45307-0" to="bebe6-0"/>
<connection from="45307-0" to="bebe6-0-re"/>
<connection from="45307-0-re" to="bebe6-0"/>
<connection from="45307-0-re" to="bebe6-0-re"/>
<connection from="bebe6-0" to="41acf-0"/>
<connection from="bebe6-0" to="45307-0"/>
<connection from="bebe6-0" to="41acf-0-re"/>
<connection from="bebe6-0" to="45307-0-re"/>
<connection from="bebe6-0-re" to="41acf-0"/>
<connection from="bebe6-0-re" to="45307-0"/>
<connection from="bebe6-0-re" to="41acf-0-re"/>
<connection from="bebe6-0-re" to="45307-0-re"/>
<!-- Point c961d a99b0bfc-fc5a-4612-8863-ddac47bc961d -->
<connection from="ee99d-0" to="14b58-0"/>
<connection from="ee99d-0" to="14b58-0-re"/>
<connection from="ee99d-0-re" to="14b58-0"/>
<connection from="ee99d-0-re" to="14b58-0-re"/>
<connection from="9d62b-0" to="14b58-0"/>
<connection from="9d62b-0" to="14b58-0-re"/>
<connection from="9d62b-0-re" to="14b58-0"/>
<connection from="9d62b-0-re" to="14b58-0-re"/>
<connection from="14b58-0" to="ee99d-0"/>
<connection from="14b58-0" to="9d62b-0"/>
<connection from="14b58-0" to="ee99d-0-re"/>
<connection from="14b58-0" to="9d62b-0-re"/>
<connection from="14b58-0-re" to="ee99d-0"/>
<connection from="14b58-0-re" to="9d62b-0"/>
<connection from="14b58-0-re" to="ee99d-0-re"/>
<connection from="14b58-0-re" to="9d62b-0-re"/>
<!-- Point ca894 09328e15-f024-492d-af3d-54e77d4ca894 -->
<connection from="ae35c-0" to="9d62b-0"/>
<connection from="ae35c-0" to="9d62b-0-re"/>
<connection from="ae35c-0-re" to="9d62b-0"/>
<connection from="ae35c-0-re" to="9d62b-0-re"/>
<connection from="5c49d-0" to="9d62b-0"/>
<connection from="5c49d-0" to="9d62b-0-re"/>
<connection from="5c49d-0-re" to="9d62b-0"/>
<connection from="5c49d-0-re" to="9d62b-0-re"/>
<connection from="9d62b-0" to="ae35c-0"/>
<connection from="9d62b-0" to="5c49d-0"/>
<connection from="9d62b-0" to="ae35c-0-re"/>
<connection from="9d62b-0" to="5c49d-0-re"/>
<connection from="9d62b-0-re" to="ae35c-0"/>
<connection from="9d62b-0-re" to="5c49d-0"/>
<connection from="9d62b-0-re" to="ae35c-0-re"/>
<connection from="9d62b-0-re" to="5c49d-0-re"/>
<!-- Point f4864 e20281c2-777e-47d7-99ad-a54e184f4864 -->
<connection from="29fb9-0" to="2a6d8-0"/>
<connection from="29fb9-0" to="2a6d8-0-re"/>
<connection from="29fb9-0-re" to="2a6d8-0"/>
<connection from="29fb9-0-re" to="2a6d8-0-re"/>
<connection from="5c49d-2" to="2a6d8-0"/>
<connection from="5c49d-2" to="2a6d8-0-re"/>
<connection from="5c49d-2-re" to="2a6d8-0"/>
<connection from="5c49d-2-re" to="2a6d8-0-re"/>
<connection from="2a6d8-0" to="29fb9-0"/>
<connection from="2a6d8-0" to="5c49d-2"/>
<connection from="2a6d8-0" to="29fb9-0-re"/>
<connection from="2a6d8-0" to="5c49d-2-re"/>
<connection from="2a6d8-0-re" to="29fb9-0"/>
<connection from="2a6d8-0-re" to="5c49d-2"/>
<connection from="2a6d8-0-re" to="29fb9-0-re"/>
<connection from="2a6d8-0-re" to="5c49d-2-re"/>
<!-- Point 14ba7 461ad712-0dee-4458-b45b-d72cbf414ba7 -->
<connection from="2a6d8-0" to="91129-0"/>
<connection from="2a6d8-0" to="91129-0-re"/>
<connection from="2a6d8-0-re" to="91129-0"/>
<connection from="2a6d8-0-re" to="91129-0-re"/>
<connection from="95e11-0" to="91129-0"/>
<connection from="95e11-0" to="91129-0-re"/>
<connection from="95e11-0-re" to="91129-0"/>
<connection from="95e11-0-re" to="91129-0-re"/>
<connection from="91129-0" to="2a6d8-0"/>
<connection from="91129-0" to="95e11-0"/>
<connection from="91129-0" to="2a6d8-0-re"/>
<connection from="91129-0" to="95e11-0-re"/>
<connection from="91129-0-re" to="2a6d8-0"/>
<connection from="91129-0-re" to="95e11-0"/>
<connection from="91129-0-re" to="2a6d8-0-re"/>
<connection from="91129-0-re" to="95e11-0-re"/>
<!-- Point 23aef 49482e79-5737-44a5-a825-af5645723aef -->
<connection from="91129-0" to="1aed3-0"/>
<connection from="91129-0" to="1aed3-0-re"/>
<connection from="91129-0-re" to="1aed3-0"/>
<connection from="91129-0-re" to="1aed3-0-re"/>
<connection from="e0826-0" to="1aed3-0"/>
<connection from="e0826-0" to="1aed3-0-re"/>
<connection from="e0826-0-re" to="1aed3-0"/>
<connection from="e0826-0-re" to="1aed3-0-re"/>
<connection from="1aed3-0" to="91129-0"/>
<connection from="1aed3-0" to="e0826-0"/>
<connection from="1aed3-0" to="91129-0-re"/>
<connection from="1aed3-0" to="e0826-0-re"/>
<connection from="1aed3-0-re" to="91129-0"/>
<connection from="1aed3-0-re" to="e0826-0"/>
<connection from="1aed3-0-re" to="91129-0-re"/>
<connection from="1aed3-0-re" to="e0826-0-re"/>
<!-- Point 4ddd0 a021d3dd-be2b-4123-b088-ccbe2bb4ddd0 -->
<connection from="252f9-0" to="1aed3-2"/>
<connection from="252f9-0" to="1aed3-2-re"/>
<connection from="252f9-0-re" to="1aed3-2"/>
<connection from="252f9-0-re" to="1aed3-2-re"/>
<connection from="1a7dc-0" to="1aed3-2"/>
<connection from="1a7dc-0" to="1aed3-2-re"/>
<connection from="1a7dc-0-re" to="1aed3-2"/>
<connection from="1a7dc-0-re" to="1aed3-2-re"/>
<connection from="1aed3-2" to="252f9-0"/>
<connection from="1aed3-2" to="1a7dc-0"/>
<connection from="1aed3-2" to="252f9-0-re"/>
<connection from="1aed3-2" to="1a7dc-0-re"/>
<connection from="1aed3-2-re" to="252f9-0"/>
<connection from="1aed3-2-re" to="1a7dc-0"/>
<connection from="1aed3-2-re" to="252f9-0-re"/>
<connection from="1aed3-2-re" to="1a7dc-0-re"/>
<!-- Point 6ca93 11e89f7c-1e61-4817-9685-6c0ce166ca93 -->
<connection from="848a1-0" to="8ee6d-0"/>
<connection from="848a1-0" to="8ee6d-0-re"/>
<connection from="848a1-0-re" to="8ee6d-0"/>
<connection from="848a1-0-re" to="8ee6d-0-re"/>
<connection from="1a7dc-2" to="8ee6d-0"/>
<connection from="1a7dc-2" to="8ee6d-0-re"/>
<connection from="1a7dc-2-re" to="8ee6d-0"/>
<connection from="1a7dc-2-re" to="8ee6d-0-re"/>
<connection from="8ee6d-0" to="848a1-0"/>
<connection from="8ee6d-0" to="1a7dc-2"/>
<connection from="8ee6d-0" to="848a1-0-re"/>
<connection from="8ee6d-0" to="1a7dc-2-re"/>
<connection from="8ee6d-0-re" to="848a1-0"/>
<connection from="8ee6d-0-re" to="1a7dc-2"/>
<connection from="8ee6d-0-re" to="848a1-0-re"/>
<connection from="8ee6d-0-re" to="1a7dc-2-re"/>

<!-- Point a8ceb 8a62aec5-8a2c-4dcb-a530-2fd5735a8ceb -->
<connection from="d83eb-0" to="b7d00-0"/>
<connection from="d83eb-0" to="b7d00-0-re"/>
<connection from="d83eb-0-re" to="b7d00-0"/>
<connection from="d83eb-0-re" to="b7d00-0-re"/>
<connection from="7e011-0" to="b7d00-0"/>
<connection from="7e011-0" to="b7d00-0-re"/>
<connection from="7e011-0-re" to="b7d00-0"/>
<connection from="7e011-0-re" to="b7d00-0-re"/>
<connection from="b7d00-0" to="d83eb-0"/>
<connection from="b7d00-0" to="7e011-0"/>
<connection from="b7d00-0" to="d83eb-0-re"/>
<connection from="b7d00-0" to="7e011-0-re"/>
<connection from="b7d00-0-re" to="d83eb-0"/>
<connection from="b7d00-0-re" to="7e011-0"/>
<connection from="b7d00-0-re" to="d83eb-0-re"/>
<connection from="b7d00-0-re" to="7e011-0-re"/>
<!-- Point f538a 09cb4234-480c-4a1e-a8e2-131839bf538a -->
<connection from="d83eb-2" to="7a5b1-0"/>
<connection from="d83eb-2" to="7a5b1-0-re"/>
<connection from="d83eb-2-re" to="7a5b1-0"/>
<connection from="d83eb-2-re" to="7a5b1-0-re"/>
<connection from="d3853-0" to="7a5b1-0"/>
<connection from="d3853-0" to="7a5b1-0-re"/>
<connection from="d3853-0-re" to="7a5b1-0"/>
<connection from="d3853-0-re" to="7a5b1-0-re"/>
<connection from="7a5b1-0" to="d83eb-2"/>
<connection from="7a5b1-0" to="d3853-0"/>
<connection from="7a5b1-0" to="d83eb-2-re"/>
<connection from="7a5b1-0" to="d3853-0-re"/>
<connection from="7a5b1-0-re" to="d83eb-2"/>
<connection from="7a5b1-0-re" to="d3853-0"/>
<connection from="7a5b1-0-re" to="d83eb-2-re"/>
<connection from="7a5b1-0-re" to="d3853-0-re"/>
<!-- Point 1c878 dfece8ef-bb1e-410d-a4eb-223f5db1c878 -->
<connection from="9a3c7-0" to="7a5b1-0"/>
<connection from="9a3c7-0" to="7a5b1-0-re"/>
<connection from="9a3c7-0-re" to="7a5b1-0"/>
<connection from="9a3c7-0-re" to="7a5b1-0-re"/>
<connection from="a6b51-0" to="7a5b1-0"/>
<connection from="a6b51-0" to="7a5b1-0-re"/>
<connection from="a6b51-0-re" to="7a5b1-0"/>
<connection from="a6b51-0-re" to="7a5b1-0-re"/>
<connection from="7a5b1-0" to="9a3c7-0"/>
<connection from="7a5b1-0" to="a6b51-0"/>
<connection from="7a5b1-0" to="9a3c7-0-re"/>
<connection from="7a5b1-0" to="a6b51-0-re"/>
<connection from="7a5b1-0-re" to="9a3c7-0"/>
<connection from="7a5b1-0-re" to="a6b51-0"/>
<connection from="7a5b1-0-re" to="9a3c7-0-re"/>
<connection from="7a5b1-0-re" to="a6b51-0-re"/>
<!-- Point 2f688 ebbc0848-6c61-4016-9b6e-0dc473a2f688 -->
<connection from="00a0c-0" to="1e138-0"/>
<connection from="00a0c-0" to="1e138-0-re"/>
<connection from="00a0c-0-re" to="1e138-0"/>
<connection from="00a0c-0-re" to="1e138-0-re"/>
<connection from="30f50-0" to="1e138-0"/>
<connection from="30f50-0" to="1e138-0-re"/>
<connection from="30f50-0-re" to="1e138-0"/>
<connection from="30f50-0-re" to="1e138-0-re"/>
<connection from="1e138-0" to="00a0c-0"/>
<connection from="1e138-0" to="30f50-0"/>
<connection from="1e138-0" to="00a0c-0-re"/>
<connection from="1e138-0" to="30f50-0-re"/>
<connection from="1e138-0-re" to="00a0c-0"/>
<connection from="1e138-0-re" to="30f50-0"/>
<connection from="1e138-0-re" to="00a0c-0-re"/>
<connection from="1e138-0-re" to="30f50-0-re"/>
<!-- Point cb0b1 c3168b87-9525-487b-85ec-ed3fce0cb0b1 -->
<connection from="9c671-0" to="24f4b-2"/>
<connection from="9c671-0" to="24f4b-2-re"/>
<connection from="9c671-0-re" to="24f4b-2"/>
<connection from="9c671-0-re" to="24f4b-2-re"/>
<connection from="49712-0" to="24f4b-2"/>
<connection from="49712-0" to="24f4b-2-re"/>
<connection from="49712-0-re" to="24f4b-2"/>
<connection from="49712-0-re" to="24f4b-2-re"/>
<connection from="24f4b-2" to="9c671-0"/>
<connection from="24f4b-2" to="49712-0"/>
<connection from="24f4b-2" to="9c671-0-re"/>
<connection from="24f4b-2" to="49712-0-re"/>
<connection from="24f4b-2-re" to="9c671-0"/>
<connection from="24f4b-2-re" to="49712-0"/>
<connection from="24f4b-2-re" to="9c671-0-re"/>
<connection from="24f4b-2-re" to="49712-0-re"/>
<!-- Point ace97 b71c0e7c-3027-49ad-90fc-bb04039ace97 -->
<connection from="22407-0" to="38b10-0"/>
<connection from="22407-0" to="38b10-0-re"/>
<connection from="22407-0-re" to="38b10-0"/>
<connection from="22407-0-re" to="38b10-0-re"/>
<connection from="9c671-2" to="38b10-0"/>
<connection from="9c671-2" to="38b10-0-re"/>
<connection from="9c671-2-re" to="38b10-0"/>
<connection from="9c671-2-re" to="38b10-0-re"/>
<connection from="38b10-0" to="22407-0"/>
<connection from="38b10-0" to="9c671-2"/>
<connection from="38b10-0" to="22407-0-re"/>
<connection from="38b10-0" to="9c671-2-re"/>
<connection from="38b10-0-re" to="22407-0"/>
<connection from="38b10-0-re" to="9c671-2"/>
<connection from="38b10-0-re" to="22407-0-re"/>
<connection from="38b10-0-re" to="9c671-2-re"/>
<!-- Point 0908f 7227d5d6-68d3-490f-a350-b2f06d80908f -->
<connection from="4dbea-0" to="38b10-0"/>
<connection from="4dbea-0" to="38b10-0-re"/>
<connection from="4dbea-0-re" to="38b10-0"/>
<connection from="4dbea-0-re" to="38b10-0-re"/>
<connection from="abe83-0" to="38b10-0"/>
<connection from="abe83-0" to="38b10-0-re"/>
<connection from="abe83-0-re" to="38b10-0"/>
<connection from="abe83-0-re" to="38b10-0-re"/>
<connection from="38b10-0" to="4dbea-0"/>
<connection from="38b10-0" to="abe83-0"/>
<connection from="38b10-0" to="4dbea-0-re"/>
<connection from="38b10-0" to="abe83-0-re"/>
<connection from="38b10-0-re" to="4dbea-0"/>
<connection from="38b10-0-re" to="abe83-0"/>
<connection from="38b10-0-re" to="4dbea-0-re"/>
<connection from="38b10-0-re" to="abe83-0-re"/>
<!-- Point d9213 8cf79061-d0f5-4897-8285-ac5cda4d9213 -->
<connection from="abe83-2" to="bebe6-0"/>
<connection from="abe83-2" to="bebe6-0-re"/>
<connection from="abe83-2-re" to="bebe6-0"/>
<connection from="abe83-2-re" to="bebe6-0-re"/>
<connection from="b2f4e-0" to="bebe6-0"/>
<connection from="b2f4e-0" to="bebe6-0-re"/>
<connection from="b2f4e-0-re" to="bebe6-0"/>
<connection from="b2f4e-0-re" to="bebe6-0-re"/>
<connection from="bebe6-0" to="abe83-2"/>
<connection from="bebe6-0" to="b2f4e-0"/>
<connection from="bebe6-0" to="abe83-2-re"/>
<connection from="bebe6-0" to="b2f4e-0-re"/>
<connection from="bebe6-0-re" to="abe83-2"/>
<connection from="bebe6-0-re" to="b2f4e-0"/>
<connection from="bebe6-0-re" to="abe83-2-re"/>
<connection from="bebe6-0-re" to="b2f4e-0-re"/>
<!-- Point 6dfdb 97ce0023-6532-4767-b3fc-ee8ef9c6dfdb -->
<connection from="d5026-0" to="e2ed8-0"/>
<connection from="d5026-0" to="e2ed8-0-re"/>
<connection from="d5026-0-re" to="e2ed8-0"/>
<connection from="d5026-0-re" to="e2ed8-0-re"/>
<connection from="1e138-14" to="e2ed8-0"/>
<connection from="1e138-14" to="e2ed8-0-re"/>
<connection from="1e138-14-re" to="e2ed8-0"/>
<connection from="1e138-14-re" to="e2ed8-0-re"/>
<connection from="e2ed8-0" to="d5026-0"/>
<connection from="e2ed8-0" to="1e138-14"/>
<connection from="e2ed8-0" to="d5026-0-re"/>
<connection from="e2ed8-0" to="1e138-14-re"/>
<connection from="e2ed8-0-re" to="d5026-0"/>
<connection from="e2ed8-0-re" to="1e138-14"/>
<connection from="e2ed8-0-re" to="d5026-0-re"/>
<connection from="e2ed8-0-re" to="1e138-14-re"/>

<!-- Point 849ca e0ca4e1f-a431-45d7-889c-1b52ffa849ca -->
<connection from="5c143-3" to="ec53c-0"/>
<connection from="5c143-3" to="ec53c-0-re"/>
<connection from="5c143-3-re" to="ec53c-0"/>
<connection from="5c143-3-re" to="ec53c-0-re"/>
<connection from="6a34f-0" to="ec53c-0"/>
<connection from="6a34f-0" to="ec53c-0-re"/>
<connection from="6a34f-0-re" to="ec53c-0"/>
<connection from="6a34f-0-re" to="ec53c-0-re"/>
<connection from="ec53c-0" to="5c143-3"/>
<connection from="ec53c-0" to="6a34f-0"/>
<connection from="ec53c-0" to="5c143-3-re"/>
<connection from="ec53c-0" to="6a34f-0-re"/>
<connection from="ec53c-0-re" to="5c143-3"/>
<connection from="ec53c-0-re" to="6a34f-0"/>
<connection from="ec53c-0-re" to="5c143-3-re"/>
<connection from="ec53c-0-re" to="6a34f-0-re"/>

<!-- Point 183a4 147b77d5-03c4-4443-b5d0-6788d8b183a4 -->
<connection from="ec53c-2" to="5a002-0"/>
<connection from="ec53c-2" to="5a002-0-re"/>
<connection from="ec53c-2-re" to="5a002-0"/>
<connection from="ec53c-2-re" to="5a002-0-re"/>
<connection from="3d9e8-0" to="5a002-0"/>
<connection from="3d9e8-0" to="5a002-0-re"/>
<connection from="3d9e8-0-re" to="5a002-0"/>
<connection from="3d9e8-0-re" to="5a002-0-re"/>
<connection from="5a002-0" to="ec53c-2"/>
<connection from="5a002-0" to="3d9e8-0"/>
<connection from="5a002-0" to="ec53c-2-re"/>
<connection from="5a002-0" to="3d9e8-0-re"/>
<connection from="5a002-0-re" to="ec53c-2"/>
<connection from="5a002-0-re" to="3d9e8-0"/>
<connection from="5a002-0-re" to="ec53c-2-re"/>
<connection from="5a002-0-re" to="3d9e8-0-re"/>
<!-- Point 36171 d57e5455-25bc-4849-b4be-35dfc5a36171 -->
<connection from="e32fe-0" to="7615b-0"/>
<connection from="e32fe-0" to="7615b-0-re"/>
<connection from="e32fe-0-re" to="7615b-0"/>
<connection from="e32fe-0-re" to="7615b-0-re"/>
<connection from="5a002-2" to="7615b-0"/>
<connection from="5a002-2" to="7615b-0-re"/>
<connection from="5a002-2-re" to="7615b-0"/>
<connection from="5a002-2-re" to="7615b-0-re"/>
<connection from="7615b-0" to="e32fe-0"/>
<connection from="7615b-0" to="5a002-2"/>
<connection from="7615b-0" to="e32fe-0-re"/>
<connection from="7615b-0" to="5a002-2-re"/>
<connection from="7615b-0-re" to="e32fe-0"/>
<connection from="7615b-0-re" to="5a002-2"/>
<connection from="7615b-0-re" to="e32fe-0-re"/>
<connection from="7615b-0-re" to="5a002-2-re"/>
<!-- Point 129af ab499f98-d3c6-4e75-a411-b5d5edb129af -->
<connection from="6f783-0" to="7615b-0"/>
<connection from="6f783-0" to="7615b-0-re"/>
<connection from="6f783-0-re" to="7615b-0"/>
<connection from="6f783-0-re" to="7615b-0-re"/>
<connection from="99c34-0" to="7615b-0"/>
<connection from="99c34-0" to="7615b-0-re"/>
<connection from="99c34-0-re" to="7615b-0"/>
<connection from="99c34-0-re" to="7615b-0-re"/>
<connection from="7615b-0" to="6f783-0"/>
<connection from="7615b-0" to="99c34-0"/>
<connection from="7615b-0" to="6f783-0-re"/>
<connection from="7615b-0" to="99c34-0-re"/>
<connection from="7615b-0-re" to="6f783-0"/>
<connection from="7615b-0-re" to="99c34-0"/>
<connection from="7615b-0-re" to="6f783-0-re"/>
<connection from="7615b-0-re" to="99c34-0-re"/>
<!-- Point 82732 ecfde954-8242-4e6c-91c0-240e50c82732 -->
<connection from="a7cb8-0" to="a2488-0"/>
<connection from="a7cb8-0" to="a2488-0-re"/>
<connection from="a7cb8-0-re" to="a2488-0"/>
<connection from="a7cb8-0-re" to="a2488-0-re"/>
<connection from="6f783-2" to="a2488-0"/>
<connection from="6f783-2" to="a2488-0-re"/>
<connection from="6f783-2-re" to="a2488-0"/>
<connection from="6f783-2-re" to="a2488-0-re"/>
<connection from="a2488-0" to="a7cb8-0"/>
<connection from="a2488-0" to="6f783-2"/>
<connection from="a2488-0" to="a7cb8-0-re"/>
<connection from="a2488-0" to="6f783-2-re"/>
<connection from="a2488-0-re" to="a7cb8-0"/>
<connection from="a2488-0-re" to="6f783-2"/>
<connection from="a2488-0-re" to="a7cb8-0-re"/>
<connection from="a2488-0-re" to="6f783-2-re"/>
<!-- Point 6583b 316519d3-ad3c-418d-8fb2-f1b66616583b -->
<connection from="3e230-0" to="a2488-2"/>
<connection from="3e230-0" to="a2488-2-re"/>
<connection from="3e230-0-re" to="a2488-2"/>
<connection from="3e230-0-re" to="a2488-2-re"/>
<connection from="2d6ac-0" to="a2488-2"/>
<connection from="2d6ac-0" to="a2488-2-re"/>
<connection from="2d6ac-0-re" to="a2488-2"/>
<connection from="2d6ac-0-re" to="a2488-2-re"/>
<connection from="a2488-2" to="3e230-0"/>
<connection from="a2488-2" to="2d6ac-0"/>
<connection from="a2488-2" to="3e230-0-re"/>
<connection from="a2488-2" to="2d6ac-0-re"/>
<connection from="a2488-2-re" to="3e230-0"/>
<connection from="a2488-2-re" to="2d6ac-0"/>
<connection from="a2488-2-re" to="3e230-0-re"/>
<connection from="a2488-2-re" to="2d6ac-0-re"/>
<!-- Point 3843d 3e00ec98-8320-4d2e-a994-e65c2133843d -->
<connection from="af051-0" to="e3e56-0"/>
<connection from="af051-0" to="e3e56-0-re"/>
<connection from="af051-0-re" to="e3e56-0"/>
<connection from="af051-0-re" to="e3e56-0-re"/>
<connection from="3e230-2" to="e3e56-0"/>
<connection from="3e230-2" to="e3e56-0-re"/>
<connection from="3e230-2-re" to="e3e56-0"/>
<connection from="3e230-2-re" to="e3e56-0-re"/>
<connection from="e3e56-0" to="af051-0"/>
<connection from="e3e56-0" to="3e230-2"/>
<connection from="e3e56-0" to="af051-0-re"/>
<connection from="e3e56-0" to="3e230-2-re"/>
<connection from="e3e56-0-re" to="af051-0"/>
<connection from="e3e56-0-re" to="3e230-2"/>
<connection from="e3e56-0-re" to="af051-0-re"/>
<connection from="e3e56-0-re" to="3e230-2-re"/>
<!-- Point 09f59 d6728eea-11a4-4d93-812e-8136f2809f59 -->
<connection from="e3e56-2" to="9fbf2-0"/>
<connection from="e3e56-2" to="9fbf2-0-re"/>
<connection from="e3e56-2-re" to="9fbf2-0"/>
<connection from="e3e56-2-re" to="9fbf2-0-re"/>
<connection from="f4d7e-0" to="9fbf2-0"/>
<connection from="f4d7e-0" to="9fbf2-0-re"/>
<connection from="f4d7e-0-re" to="9fbf2-0"/>
<connection from="f4d7e-0-re" to="9fbf2-0-re"/>
<connection from="9fbf2-0" to="e3e56-2"/>
<connection from="9fbf2-0" to="f4d7e-0"/>
<connection from="9fbf2-0" to="e3e56-2-re"/>
<connection from="9fbf2-0" to="f4d7e-0-re"/>
<connection from="9fbf2-0-re" to="e3e56-2"/>
<connection from="9fbf2-0-re" to="f4d7e-0"/>
<connection from="9fbf2-0-re" to="e3e56-2-re"/>
<connection from="9fbf2-0-re" to="f4d7e-0-re"/>
<!-- Point 7d03b ca65dfe1-da26-42f8-88b2-ff016fc7d03b -->
<connection from="fd63d-0" to="f0789-0"/>
<connection from="fd63d-0" to="f0789-0-re"/>
<connection from="fd63d-0-re" to="f0789-0"/>
<connection from="fd63d-0-re" to="f0789-0-re"/>
<connection from="1aa38-0" to="f0789-0"/>
<connection from="1aa38-0" to="f0789-0-re"/>
<connection from="1aa38-0-re" to="f0789-0"/>
<connection from="1aa38-0-re" to="f0789-0-re"/>
<connection from="f0789-0" to="fd63d-0"/>
<connection from="f0789-0" to="1aa38-0"/>
<connection from="f0789-0" to="fd63d-0-re"/>
<connection from="f0789-0" to="1aa38-0-re"/>
<connection from="f0789-0-re" to="fd63d-0"/>
<connection from="f0789-0-re" to="1aa38-0"/>
<connection from="f0789-0-re" to="fd63d-0-re"/>
<connection from="f0789-0-re" to="1aa38-0-re"/>
<!-- Point a783f d3616ec5-b783-431a-a075-3805592a783f -->
<connection from="fd63d-2" to="8e427-0"/>
<connection from="fd63d-2" to="8e427-0-re"/>
<connection from="fd63d-2-re" to="8e427-0"/>
<connection from="fd63d-2-re" to="8e427-0-re"/>
<connection from="21967-0" to="8e427-0"/>
<connection from="21967-0" to="8e427-0-re"/>
<connection from="21967-0-re" to="8e427-0"/>
<connection from="21967-0-re" to="8e427-0-re"/>
<connection from="8e427-0" to="fd63d-2"/>
<connection from="8e427-0" to="21967-0"/>
<connection from="8e427-0" to="fd63d-2-re"/>
<connection from="8e427-0" to="21967-0-re"/>
<connection from="8e427-0-re" to="fd63d-2"/>
<connection from="8e427-0-re" to="21967-0"/>
<connection from="8e427-0-re" to="fd63d-2-re"/>
<connection from="8e427-0-re" to="21967-0-re"/>
<!-- Point 664e2 3a2a03aa-b43c-43d2-9d61-bc16e69664e2 -->
<connection from="4dbea-2" to="8e427-0"/>
<connection from="4dbea-2" to="8e427-0-re"/>
<connection from="4dbea-2-re" to="8e427-0"/>
<connection from="4dbea-2-re" to="8e427-0-re"/>
<connection from="e8087-0" to="8e427-0"/>
<connection from="e8087-0" to="8e427-0-re"/>
<connection from="e8087-0-re" to="8e427-0"/>
<connection from="e8087-0-re" to="8e427-0-re"/>
<connection from="8e427-0" to="4dbea-2"/>
<connection from="8e427-0" to="e8087-0"/>
<connection from="8e427-0" to="4dbea-2-re"/>
<connection from="8e427-0" to="e8087-0-re"/>
<connection from="8e427-0-re" to="4dbea-2"/>
<connection from="8e427-0-re" to="e8087-0"/>
<connection from="8e427-0-re" to="4dbea-2-re"/>
<connection from="8e427-0-re" to="e8087-0-re"/>
<!-- Point 15259 9527fda8-5fa6-4c89-8083-86845d015259 -->
<connection from="f38df-0" to="e8087-0"/>
<connection from="f38df-0" to="e8087-0-re"/>
<connection from="f38df-0-re" to="e8087-0"/>
<connection from="f38df-0-re" to="e8087-0-re"/>
<connection from="acd19-0" to="e8087-0"/>
<connection from="acd19-0" to="e8087-0-re"/>
<connection from="acd19-0-re" to="e8087-0"/>
<connection from="acd19-0-re" to="e8087-0-re"/>
<connection from="e8087-0" to="f38df-0"/>
<connection from="e8087-0" to="acd19-0"/>
<connection from="e8087-0" to="f38df-0-re"/>
<connection from="e8087-0" to="acd19-0-re"/>
<connection from="e8087-0-re" to="f38df-0"/>
<connection from="e8087-0-re" to="acd19-0"/>
<connection from="e8087-0-re" to="f38df-0-re"/>
<connection from="e8087-0-re" to="acd19-0-re"/>
<!-- Point eab8f 448a1f79-5d68-48a2-9e1a-2ce1ca2eab8f -->
<connection from="a7cb8-2" to="52ac9-0"/>
<connection from="a7cb8-2" to="52ac9-0-re"/>
<connection from="a7cb8-2-re" to="52ac9-0"/>
<connection from="a7cb8-2-re" to="52ac9-0-re"/>
<connection from="5bf1d-0" to="52ac9-0"/>
<connection from="5bf1d-0" to="52ac9-0-re"/>
<connection from="5bf1d-0-re" to="52ac9-0"/>
<connection from="5bf1d-0-re" to="52ac9-0-re"/>
<connection from="52ac9-0" to="a7cb8-2"/>
<connection from="52ac9-0" to="5bf1d-0"/>
<connection from="52ac9-0" to="a7cb8-2-re"/>
<connection from="52ac9-0" to="5bf1d-0-re"/>
<connection from="52ac9-0-re" to="a7cb8-2"/>
<connection from="52ac9-0-re" to="5bf1d-0"/>
<connection from="52ac9-0-re" to="a7cb8-2-re"/>
<connection from="52ac9-0-re" to="5bf1d-0-re"/>
<!-- Point 98a94 8cc00cd8-d310-4ccc-8ed1-c5f5a2798a94 -->
<connection from="7e412-0" to="52ac9-0"/>
<connection from="7e412-0" to="52ac9-0-re"/>
<connection from="7e412-0-re" to="52ac9-0"/>
<connection from="7e412-0-re" to="52ac9-0-re"/>
<connection from="99c34-2" to="52ac9-0"/>
<connection from="99c34-2" to="52ac9-0-re"/>
<connection from="99c34-2-re" to="52ac9-0"/>
<connection from="99c34-2-re" to="52ac9-0-re"/>
<connection from="52ac9-0" to="7e412-0"/>
<connection from="52ac9-0" to="99c34-2"/>
<connection from="52ac9-0" to="7e412-0-re"/>
<connection from="52ac9-0" to="99c34-2-re"/>
<connection from="52ac9-0-re" to="7e412-0"/>
<connection from="52ac9-0-re" to="99c34-2"/>
<connection from="52ac9-0-re" to="7e412-0-re"/>
<connection from="52ac9-0-re" to="99c34-2-re"/>
<!-- Point db6b6 b3328c6f-bf36-4ce2-8f69-2a263a4db6b6 -->
<connection from="f4c9b-0" to="bf830-0"/>
<connection from="f4c9b-0" to="bf830-0-re"/>
<connection from="f4c9b-0-re" to="bf830-0"/>
<connection from="f4c9b-0-re" to="bf830-0-re"/>
<connection from="10a57-0" to="bf830-0"/>
<connection from="10a57-0" to="bf830-0-re"/>
<connection from="10a57-0-re" to="bf830-0"/>
<connection from="10a57-0-re" to="bf830-0-re"/>
<connection from="bf830-0" to="f4c9b-0"/>
<connection from="bf830-0" to="10a57-0"/>
<connection from="bf830-0" to="f4c9b-0-re"/>
<connection from="bf830-0" to="10a57-0-re"/>
<connection from="bf830-0-re" to="f4c9b-0"/>
<connection from="bf830-0-re" to="10a57-0"/>
<connection from="bf830-0-re" to="f4c9b-0-re"/>
<connection from="bf830-0-re" to="10a57-0-re"/>
<!-- Point 4f5c3 f4b3735d-4dff-4b68-a8c5-e29dcc44f5c3 -->
<connection from="f4c9b-2" to="c0300-0"/>
<connection from="f4c9b-2" to="c0300-0-re"/>
<connection from="f4c9b-2-re" to="c0300-0"/>
<connection from="f4c9b-2-re" to="c0300-0-re"/>
<connection from="8d838-0" to="c0300-0"/>
<connection from="8d838-0" to="c0300-0-re"/>
<connection from="8d838-0-re" to="c0300-0"/>