<?xml version="1.0" encoding="UTF-8"?>

<!-- generated on 2023-05-11 11:47:49 by Eclipse SUMO netconvert Version 1.12.0
<configuration xmlns:xsi="http://www.w3.org/2001/XMLSchema-instance" xsi:noNamespaceSchemaLocation="http://sumo.dlr.de/xsd/netconvertConfiguration.xsd">

    <input>
        <node-files value="sumo-config/schwarze_pumpe_v1.nod.xml"/>
        <edge-files value="sumo-config/schwarze_pumpe_v1.edg.xml"/>
        <connection-files value="sumo-config/schwarze_pumpe_v1.con.xml"/>
    </input>

    <output>
        <output-file value="sumo-config/schwarze_pumpe_v1.net.xml"/>
    </output>

    <railway>
        <railway.topology.repair value="true"/>
        <railway.topology.repair.connect-straight value="true"/>
        <railway.topology.repair.stop-turn value="true"/>
        <railway.topology.all-bidi value="false"/>
    </railway>

    <report>
        <aggregate-warnings value="5"/>
    </report>

</configuration>
-->

<net version="1.9" junctionCornerDetail="5" limitTurnSpeed="5.50" xmlns:xsi="http://www.w3.org/2001/XMLSchema-instance" xsi:noNamespaceSchemaLocation="http://sumo.dlr.de/xsd/net_file.xsd">

    <location netOffset="2506174.81,-3459405.32" convBoundary="0.00,0.00,12719.19,11737.42" origBoundary="-2506174.81,3459405.32,-2493455.62,3471142.74" projParameter="!"/>

    <edge id=":00354_0" function="internal">
        <lane id=":00354_0_0" index="0" allow="rail rail_electric" speed="0.10" length="0.10" shape="9004.54,6273.10 9004.54,6273.10"/>
    </edge>
    <edge id=":00518_0" function="internal" bidi=":00518_3">
        <lane id=":00518_0_0" index="0" allow="rail rail_electric" speed="110.00" length="2.94" shape="6443.37,5806.17 6440.50,5806.84"/>
    </edge>
    <edge id=":00518_1" function="internal" bidi=":00518_2">
        <lane id=":00518_1_0" index="0" allow="rail rail_electric" speed="110.00" length="2.95" shape="6443.37,5806.17 6440.48,5806.74"/>
    </edge>
    <edge id=":00518_2" function="internal" bidi=":00518_1">
        <lane id=":00518_2_0" index="0" allow="rail rail_electric" speed="110.00" length="2.95" shape="6440.48,5806.74 6443.37,5806.17"/>
    </edge>
    <edge id=":00518_3" function="internal" bidi=":00518_0">
        <lane id=":00518_3_0" index="0" allow="rail rail_electric" speed="110.00" length="2.94" shape="6440.50,5806.84 6443.37,5806.17"/>
    </edge>
    <edge id=":00bc1ebc-9246-4650-9768-a756ba9d1fc7-km-1-gegen_0" function="internal" bidi=":00bc1ebc-9246-4650-9768-a756ba9d1fc7-km-1-gegen_1">
        <lane id=":00bc1ebc-9246-4650-9768-a756ba9d1fc7-km-1-gegen_0_0" index="0" allow="rail rail_electric" speed="3.96" length="2.74" shape="0.85,7554.01 0.76,7553.63 1.35,7553.46 2.23,7553.35 3.06,7553.14"/>
    </edge>
    <edge id=":00bc1ebc-9246-4650-9768-a756ba9d1fc7-km-1-gegen_1" function="internal" bidi=":00bc1ebc-9246-4650-9768-a756ba9d1fc7-km-1-gegen_0">
        <lane id=":00bc1ebc-9246-4650-9768-a756ba9d1fc7-km-1-gegen_1_0" index="0" allow="rail rail_electric" speed="3.96" length="2.74" shape="3.06,7553.14 2.23,7553.35 1.35,7553.46 0.76,7553.63 0.85,7554.01"/>
    </edge>
    <edge id=":00bc1ebc-9246-4650-9768-a756ba9d1fc7-km-1-in_0" function="internal" bidi=":00bc1ebc-9246-4650-9768-a756ba9d1fc7-km-1-in_1">
        <lane id=":00bc1ebc-9246-4650-9768-a756ba9d1fc7-km-1-in_0_0" index="0" allow="rail rail_electric" speed="3.53" length="1.95" shape="0.99,7554.15 1.09,7554.43 0.72,7554.52 0.10,7554.57 -0.52,7554.71"/>
    </edge>
    <edge id=":00bc1ebc-9246-4650-9768-a756ba9d1fc7-km-1-in_1" function="internal" bidi=":00bc1ebc-9246-4650-9768-a756ba9d1fc7-km-1-in_0">
        <lane id=":00bc1ebc-9246-4650-9768-a756ba9d1fc7-km-1-in_1_0" index="0" allow="rail rail_electric" speed="3.53" length="1.95" shape="-0.52,7554.71 0.10,7554.57 0.72,7554.52 1.09,7554.43 0.99,7554.15"/>
    </edge>
    <edge id=":00bc1ebc-9246-4650-9768-a756ba9d1fc7-km-1001-gegen_0" function="internal" bidi=":00bc1ebc-9246-4650-9768-a756ba9d1fc7-km-1001-gegen_1">
        <lane id=":00bc1ebc-9246-4650-9768-a756ba9d1fc7-km-1001-gegen_0_0" index="0" allow="rail rail_electric" speed="3.96" length="2.71" shape="909.00,7135.60 908.92,7135.22 909.49,7135.05 910.36,7134.93 911.18,7134.72"/>
    </edge>
    <edge id=":00bc1ebc-9246-4650-9768-a756ba9d1fc7-km-1001-gegen_1" function="internal" bidi=":00bc1ebc-9246-4650-9768-a756ba9d1fc7-km-1001-gegen_0">
        <lane id=":00bc1ebc-9246-4650-9768-a756ba9d1fc7-km-1001-gegen_1_0" index="0" allow="rail rail_electric" speed="3.96" length="2.71" shape="911.18,7134.72 910.36,7134.93 909.49,7135.05 908.92,7135.22 909.00,7135.60"/>
    </edge>
    <edge id=":00bc1ebc-9246-4650-9768-a756ba9d1fc7-km-1001-in_0" function="internal" bidi=":00bc1ebc-9246-4650-9768-a756ba9d1fc7-km-1001-in_1">
        <lane id=":00bc1ebc-9246-4650-9768-a756ba9d1fc7-km-1001-in_0_0" index="0" allow="rail rail_electric" speed="3.96" length="2.71" shape="909.14,7135.74 909.23,7136.12 908.66,7136.29 907.79,7136.41 906.96,7136.63"/>
    </edge>
    <edge id=":00bc1ebc-9246-4650-9768-a756ba9d1fc7-km-1001-in_1" function="internal" bidi=":00bc1ebc-9246-4650-9768-a756ba9d1fc7-km-1001-in_0">
        <lane id=":00bc1ebc-9246-4650-9768-a756ba9d1fc7-km-1001-in_1_0" index="0" allow="rail rail_electric" speed="3.96" length="2.71" shape="906.96,7136.63 907.79,7136.41 908.66,7136.29 909.23,7136.12 909.14,7135.74"/>
    </edge>
    <edge id=":00bc1ebc-9246-4650-9768-a756ba9d1fc7-km-2001-gegen_0" function="internal" bidi=":00bc1ebc-9246-4650-9768-a756ba9d1fc7-km-2001-gegen_1">
        <lane id=":00bc1ebc-9246-4650-9768-a756ba9d1fc7-km-2001-gegen_0_0" index="0" allow="rail rail_electric" speed="3.96" length="2.75" shape="1768.49,6633.35 1768.41,6632.97 1769.00,6632.80 1769.88,6632.69 1770.72,6632.48"/>
    </edge>
    <edge id=":00bc1ebc-9246-4650-9768-a756ba9d1fc7-km-2001-gegen_1" function="internal" bidi=":00bc1ebc-9246-4650-9768-a756ba9d1fc7-km-2001-gegen_0">
        <lane id=":00bc1ebc-9246-4650-9768-a756ba9d1fc7-km-2001-gegen_1_0" index="0" allow="rail rail_electric" speed="3.96" length="2.75" shape="1770.72,6632.48 1769.88,6632.69 1769.00,6632.80 1768.41,6632.97 1768.49,6633.35"/>
    </edge>
    <edge id=":00bc1ebc-9246-4650-9768-a756ba9d1fc7-km-2001-in_0" function="internal" bidi=":00bc1ebc-9246-4650-9768-a756ba9d1fc7-km-2001-in_1">
        <lane id=":00bc1ebc-9246-4650-9768-a756ba9d1fc7-km-2001-in_0_0" index="0" allow="rail rail_electric" speed="3.96" length="2.75" shape="1768.64,6633.49 1768.72,6633.87 1768.13,6634.04 1767.25,6634.15 1766.41,6634.36"/>
    </edge>
    <edge id=":00bc1ebc-9246-4650-9768-a756ba9d1fc7-km-2001-in_1" function="internal" bidi=":00bc1ebc-9246-4650-9768-a756ba9d1fc7-km-2001-in_0">
        <lane id=":00bc1ebc-9246-4650-9768-a756ba9d1fc7-km-2001-in_1_0" index="0" allow="rail rail_electric" speed="3.96" length="2.75" shape="1766.41,6634.36 1767.25,6634.15 1768.13,6634.04 1768.72,6633.87 1768.64,6633.49"/>
    </edge>
    <edge id=":00bc1ebc-9246-4650-9768-a756ba9d1fc7-km-3478.5105064169134-in_0" function="internal" bidi=":00bc1ebc-9246-4650-9768-a756ba9d1fc7-km-3478.5105064169134-in_1">
        <lane id=":00bc1ebc-9246-4650-9768-a756ba9d1fc7-km-3478.5105064169134-in_0_0" index="0" allow="rail rail_electric" speed="110.00" length="0.10" shape="3122.98,6044.94 3122.98,6044.94"/>
    </edge>
    <edge id=":00bc1ebc-9246-4650-9768-a756ba9d1fc7-km-3478.5105064169134-in_1" function="internal" bidi=":00bc1ebc-9246-4650-9768-a756ba9d1fc7-km-3478.5105064169134-in_0">
        <lane id=":00bc1ebc-9246-4650-9768-a756ba9d1fc7-km-3478.5105064169134-in_1_0" index="0" allow="rail rail_electric" speed="110.00" length="0.10" shape="3122.98,6044.94 3122.98,6044.94"/>
    </edge>
    <edge id=":01b77_0" function="internal" bidi=":01b77_3">
        <lane id=":01b77_0_0" index="0" allow="rail rail_electric" speed="110.00" length="3.00" shape="8703.49,5787.48 8700.54,5788.03"/>
    </edge>
    <edge id=":01b77_1" function="internal" bidi=":01b77_2">
        <lane id=":01b77_1_0" index="0" allow="rail rail_electric" speed="110.00" length="3.00" shape="8703.49,5787.48 8700.52,5787.94"/>
    </edge>
    <edge id=":01b77_2" function="internal" bidi=":01b77_1">
        <lane id=":01b77_2_0" index="0" allow="rail rail_electric" speed="110.00" length="3.00" shape="8700.52,5787.94 8703.49,5787.48"/>
    </edge>
    <edge id=":01b77_3" function="internal" bidi=":01b77_0">
        <lane id=":01b77_3_0" index="0" allow="rail rail_electric" speed="110.00" length="3.00" shape="8700.54,5788.03 8703.49,5787.48"/>
    </edge>
    <edge id=":01d28f02-23d9-4537-88ae-276e1f464137-km-25-gegen_0" function="internal" bidi=":01d28f02-23d9-4537-88ae-276e1f464137-km-25-gegen_1">
        <lane id=":01d28f02-23d9-4537-88ae-276e1f464137-km-25-gegen_0_0" index="0" allow="rail rail_electric" speed="110.00" length="0.10" shape="10869.07,3139.48 10869.07,3139.48"/>
    </edge>
    <edge id=":01d28f02-23d9-4537-88ae-276e1f464137-km-25-gegen_1" function="internal" bidi=":01d28f02-23d9-4537-88ae-276e1f464137-km-25-gegen_0">
        <lane id=":01d28f02-23d9-4537-88ae-276e1f464137-km-25-gegen_1_0" index="0" allow="rail rail_electric" speed="110.00" length="0.10" shape="10869.07,3139.48 10869.07,3139.48"/>
    </edge>
    <edge id=":01d28f02-23d9-4537-88ae-276e1f464137-km-90.49227411094549-in_0" function="internal" bidi=":01d28f02-23d9-4537-88ae-276e1f464137-km-90.49227411094549-in_1">
        <lane id=":01d28f02-23d9-4537-88ae-276e1f464137-km-90.49227411094549-in_0_0" index="0" allow="rail rail_electric" speed="110.00" length="0.10" shape="10901.29,3082.46 10901.29,3082.46"/>
    </edge>
    <edge id=":01d28f02-23d9-4537-88ae-276e1f464137-km-90.49227411094549-in_1" function="internal" bidi=":01d28f02-23d9-4537-88ae-276e1f464137-km-90.49227411094549-in_0">
        <lane id=":01d28f02-23d9-4537-88ae-276e1f464137-km-90.49227411094549-in_1_0" index="0" allow="rail rail_electric" speed="110.00" length="0.10" shape="10901.29,3082.46 10901.29,3082.46"/>
    </edge>
    <edge id=":02726a08-7c88-41b2-bebd-db5a5aff4322-km-128.81965946660551-in_0" function="internal" bidi=":02726a08-7c88-41b2-bebd-db5a5aff4322-km-128.81965946660551-in_1">
        <lane id=":02726a08-7c88-41b2-bebd-db5a5aff4322-km-128.81965946660551-in_0_0" index="0" allow="rail rail_electric" speed="110.00" length="0.10" shape="7725.45,7886.91 7725.45,7886.91"/>
    </edge>
    <edge id=":02726a08-7c88-41b2-bebd-db5a5aff4322-km-128.81965946660551-in_1" function="internal" bidi=":02726a08-7c88-41b2-bebd-db5a5aff4322-km-128.81965946660551-in_0">
        <lane id=":02726a08-7c88-41b2-bebd-db5a5aff4322-km-128.81965946660551-in_1_0" index="0" allow="rail rail_electric" speed="110.00" length="0.10" shape="7725.45,7886.91 7725.45,7886.91"/>
    </edge>
    <edge id=":02726a08-7c88-41b2-bebd-db5a5aff4322-km-25-gegen_0" function="internal" bidi=":02726a08-7c88-41b2-bebd-db5a5aff4322-km-25-gegen_1">
        <lane id=":02726a08-7c88-41b2-bebd-db5a5aff4322-km-25-gegen_0_0" index="0" allow="rail rail_electric" speed="110.00" length="0.10" shape="7828.02,7870.86 7828.02,7870.86"/>
    </edge>
    <edge id=":02726a08-7c88-41b2-bebd-db5a5aff4322-km-25-gegen_1" function="internal" bidi=":02726a08-7c88-41b2-bebd-db5a5aff4322-km-25-gegen_0">
        <lane id=":02726a08-7c88-41b2-bebd-db5a5aff4322-km-25-gegen_1_0" index="0" allow="rail rail_electric" speed="110.00" length="0.10" shape="7828.02,7870.86 7828.02,7870.86"/>
    </edge>
    <edge id=":02bcf_0" function="internal">
        <lane id=":02bcf_0_0" index="0" allow="rail rail_electric" speed="0.10" length="0.10" shape="6351.04,5855.78 6351.04,5855.78"/>
    </edge>
    <edge id=":02c3c_0" function="internal" bidi=":02c3c_3">
        <lane id=":02c3c_0_0" index="0" allow="rail rail_electric" speed="110.00" length="2.80" shape="9870.90,2614.37 9870.60,2615.15 9870.41,2615.68 9870.25,2616.23 9870.03,2617.03"/>
    </edge>
    <edge id=":02c3c_1" function="internal" bidi=":02c3c_2">
        <lane id=":02c3c_1_0" index="0" allow="rail rail_electric" speed="110.00" length="2.82" shape="9870.90,2614.37 9869.86,2616.99"/>
    </edge>
    <edge id=":02c3c_2" function="internal" bidi=":02c3c_1">
        <lane id=":02c3c_2_0" index="0" allow="rail rail_electric" speed="110.00" length="2.82" shape="9869.86,2616.99 9870.90,2614.37"/>
    </edge>
    <edge id=":02c3c_3" function="internal" bidi=":02c3c_0">
        <lane id=":02c3c_3_0" index="0" allow="rail rail_electric" speed="110.00" length="2.80" shape="9870.03,2617.03 9870.25,2616.23 9870.41,2615.68 9870.60,2615.15 9870.90,2614.37"/>
    </edge>
    <edge id=":037cf_0" function="internal" bidi=":037cf_3">
        <lane id=":037cf_0_0" index="0" allow="rail rail_electric" speed="110.00" length="23.02" shape="9156.21,5893.46 9155.61,5916.46"/>
    </edge>
    <edge id=":037cf_1" function="internal" bidi=":037cf_2">
        <lane id=":037cf_1_0" index="0" allow="rail rail_electric" speed="110.00" length="23.01" shape="9152.78,5893.64 9153.52,5898.59 9154.49,5905.04 9155.31,5911.48 9155.61,5916.46"/>
    </edge>
    <edge id=":037cf_2" function="internal" bidi=":037cf_1">
        <lane id=":037cf_2_0" index="0" allow="rail rail_electric" speed="110.00" length="23.01" shape="9155.61,5916.46 9155.31,5911.48 9154.49,5905.04 9153.52,5898.59 9152.78,5893.64"/>
    </edge>
    <edge id=":037cf_3" function="internal" bidi=":037cf_0">
        <lane id=":037cf_3_0" index="0" allow="rail rail_electric" speed="110.00" length="23.02" shape="9155.61,5916.46 9156.21,5893.46"/>
    </edge>
    <edge id=":0389e_0" function="internal" bidi=":0389e_3">
        <lane id=":0389e_0_0" index="0" allow="rail rail_electric" speed="110.00" length="2.93" shape="6612.22,6335.66 6609.32,6336.10"/>
    </edge>
    <edge id=":0389e_1" function="internal" bidi=":0389e_2">
        <lane id=":0389e_1_0" index="0" allow="rail rail_electric" speed="110.00" length="2.94" shape="6612.22,6335.66 6609.31,6336.05"/>
    </edge>
    <edge id=":0389e_2" function="internal" bidi=":0389e_1">
        <lane id=":0389e_2_0" index="0" allow="rail rail_electric" speed="110.00" length="2.94" shape="6609.31,6336.05 6612.22,6335.66"/>
    </edge>
    <edge id=":0389e_3" function="internal" bidi=":0389e_0">
        <lane id=":0389e_3_0" index="0" allow="rail rail_electric" speed="110.00" length="2.93" shape="6609.32,6336.10 6612.22,6335.66"/>
    </edge>
    <edge id=":03a47370-4b66-4d81-826d-5d6c55f0cde3-km-1414.3743526688436-in_0" function="internal" bidi=":03a47370-4b66-4d81-826d-5d6c55f0cde3-km-1414.3743526688436-in_1">
        <lane id=":03a47370-4b66-4d81-826d-5d6c55f0cde3-km-1414.3743526688436-in_0_0" index="0" allow="rail rail_electric" speed="110.00" length="0.10" shape="6034.05,5908.84 6034.05,5908.84"/>
    </edge>
    <edge id=":03a47370-4b66-4d81-826d-5d6c55f0cde3-km-1414.3743526688436-in_1" function="internal" bidi=":03a47370-4b66-4d81-826d-5d6c55f0cde3-km-1414.3743526688436-in_0">
        <lane id=":03a47370-4b66-4d81-826d-5d6c55f0cde3-km-1414.3743526688436-in_1_0" index="0" allow="rail rail_electric" speed="110.00" length="0.10" shape="6034.05,5908.84 6034.05,5908.84"/>
    </edge>
    <edge id=":03a47370-4b66-4d81-826d-5d6c55f0cde3-km-25-gegen_0" function="internal" bidi=":03a47370-4b66-4d81-826d-5d6c55f0cde3-km-25-gegen_1">
        <lane id=":03a47370-4b66-4d81-826d-5d6c55f0cde3-km-25-gegen_0_0" index="0" allow="rail rail_electric" speed="110.00" length="0.10" shape="4671.58,6180.93 4671.58,6180.93"/>
    </edge>
    <edge id=":03a47370-4b66-4d81-826d-5d6c55f0cde3-km-25-gegen_1" function="internal" bidi=":03a47370-4b66-4d81-826d-5d6c55f0cde3-km-25-gegen_0">
        <lane id=":03a47370-4b66-4d81-826d-5d6c55f0cde3-km-25-gegen_1_0" index="0" allow="rail rail_electric" speed="110.00" length="0.10" shape="4671.58,6180.93 4671.58,6180.93"/>
    </edge>
    <edge id=":04e77432-c915-4572-977f-1e9d8e307c75-km-1000-gegen_0" function="internal" bidi=":04e77432-c915-4572-977f-1e9d8e307c75-km-1000-gegen_1">
        <lane id=":04e77432-c915-4572-977f-1e9d8e307c75-km-1000-gegen_0_0" index="0" allow="rail rail_electric" speed="110.00" length="0.88" shape="5970.89,6309.04 5970.70,6308.95 5970.54,6309.02 5970.36,6309.17 5970.12,6309.28"/>
    </edge>
    <edge id=":04e77432-c915-4572-977f-1e9d8e307c75-km-1000-gegen_1" function="internal" bidi=":04e77432-c915-4572-977f-1e9d8e307c75-km-1000-gegen_0">
        <lane id=":04e77432-c915-4572-977f-1e9d8e307c75-km-1000-gegen_1_0" index="0" allow="rail rail_electric" speed="110.00" length="0.88" shape="5970.12,6309.28 5970.36,6309.17 5970.54,6309.02 5970.70,6308.95 5970.89,6309.04"/>
    </edge>
    <edge id=":04e77432-c915-4572-977f-1e9d8e307c75-km-1000-in_0" function="internal" bidi=":04e77432-c915-4572-977f-1e9d8e307c75-km-1000-in_1">
        <lane id=":04e77432-c915-4572-977f-1e9d8e307c75-km-1000-in_0_0" index="0" allow="rail rail_electric" speed="110.00" length="0.88" shape="5971.80,6308.94 5971.55,6309.05 5971.37,6309.20 5971.21,6309.28 5971.03,6309.18"/>
    </edge>
    <edge id=":04e77432-c915-4572-977f-1e9d8e307c75-km-1000-in_1" function="internal" bidi=":04e77432-c915-4572-977f-1e9d8e307c75-km-1000-in_0">
        <lane id=":04e77432-c915-4572-977f-1e9d8e307c75-km-1000-in_1_0" index="0" allow="rail rail_electric" speed="110.00" length="0.88" shape="5971.03,6309.18 5971.21,6309.28 5971.37,6309.20 5971.55,6309.05 5971.80,6308.94"/>
    </edge>
    <edge id=":04e77432-c915-4572-977f-1e9d8e307c75-km-25-gegen_0" function="internal" bidi=":04e77432-c915-4572-977f-1e9d8e307c75-km-25-gegen_1">
        <lane id=":04e77432-c915-4572-977f-1e9d8e307c75-km-25-gegen_0_0" index="0" allow="rail rail_electric" speed="110.00" length="0.10" shape="6929.69,6134.84 6929.69,6134.84"/>
    </edge>
    <edge id=":04e77432-c915-4572-977f-1e9d8e307c75-km-25-gegen_1" function="internal" bidi=":04e77432-c915-4572-977f-1e9d8e307c75-km-25-gegen_0">
        <lane id=":04e77432-c915-4572-977f-1e9d8e307c75-km-25-gegen_1_0" index="0" allow="rail rail_electric" speed="110.00" length="0.10" shape="6929.69,6134.84 6929.69,6134.84"/>
    </edge>
    <edge id=":0586a10b-8bd3-4589-bada-24b5d271e2f2-km-25-gegen_0" function="internal" bidi=":0586a10b-8bd3-4589-bada-24b5d271e2f2-km-25-gegen_1">
        <lane id=":0586a10b-8bd3-4589-bada-24b5d271e2f2-km-25-gegen_0_0" index="0" allow="rail rail_electric" speed="110.00" length="0.10" shape="10406.03,3855.87 10406.03,3855.87"/>
    </edge>
    <edge id=":0586a10b-8bd3-4589-bada-24b5d271e2f2-km-25-gegen_1" function="internal" bidi=":0586a10b-8bd3-4589-bada-24b5d271e2f2-km-25-gegen_0">
        <lane id=":0586a10b-8bd3-4589-bada-24b5d271e2f2-km-25-gegen_1_0" index="0" allow="rail rail_electric" speed="110.00" length="0.10" shape="10406.03,3855.87 10406.03,3855.87"/>
    </edge>
    <edge id=":0586a10b-8bd3-4589-bada-24b5d271e2f2-km-783.4271839438517-in_0" function="internal" bidi=":0586a10b-8bd3-4589-bada-24b5d271e2f2-km-783.4271839438517-in_1">
        <lane id=":0586a10b-8bd3-4589-bada-24b5d271e2f2-km-783.4271839438517-in_0_0" index="0" allow="rail rail_electric" speed="110.00" length="0.10" shape="10056.70,4526.47 10056.70,4526.47"/>
    </edge>
    <edge id=":0586a10b-8bd3-4589-bada-24b5d271e2f2-km-783.4271839438517-in_1" function="internal" bidi=":0586a10b-8bd3-4589-bada-24b5d271e2f2-km-783.4271839438517-in_0">
        <lane id=":0586a10b-8bd3-4589-bada-24b5d271e2f2-km-783.4271839438517-in_1_0" index="0" allow="rail rail_electric" speed="110.00" length="0.10" shape="10056.70,4526.47 10056.70,4526.47"/>
    </edge>
    <edge id=":05a9ef42-87b3-4db6-9755-8484f5aa7290-km-1477.4375600646993-in_0" function="internal" bidi=":05a9ef42-87b3-4db6-9755-8484f5aa7290-km-1477.4375600646993-in_1">
        <lane id=":05a9ef42-87b3-4db6-9755-8484f5aa7290-km-1477.4375600646993-in_0_0" index="0" allow="rail rail_electric" speed="110.00" length="0.10" shape="6161.15,5876.28 6161.15,5876.28"/>
    </edge>
    <edge id=":05a9ef42-87b3-4db6-9755-8484f5aa7290-km-1477.4375600646993-in_1" function="internal" bidi=":05a9ef42-87b3-4db6-9755-8484f5aa7290-km-1477.4375600646993-in_0">
        <lane id=":05a9ef42-87b3-4db6-9755-8484f5aa7290-km-1477.4375600646993-in_1_0" index="0" allow="rail rail_electric" speed="110.00" length="0.10" shape="6161.15,5876.28 6161.15,5876.28"/>
    </edge>
    <edge id=":05a9ef42-87b3-4db6-9755-8484f5aa7290-km-25-gegen_0" function="internal" bidi=":05a9ef42-87b3-4db6-9755-8484f5aa7290-km-25-gegen_1">
        <lane id=":05a9ef42-87b3-4db6-9755-8484f5aa7290-km-25-gegen_0_0" index="0" allow="rail rail_electric" speed="110.00" length="0.10" shape="7585.36,5591.32 7585.36,5591.32"/>
    </edge>
    <edge id=":05a9ef42-87b3-4db6-9755-8484f5aa7290-km-25-gegen_1" function="internal" bidi=":05a9ef42-87b3-4db6-9755-8484f5aa7290-km-25-gegen_0">
        <lane id=":05a9ef42-87b3-4db6-9755-8484f5aa7290-km-25-gegen_1_0" index="0" allow="rail rail_electric" speed="110.00" length="0.10" shape="7585.36,5591.32 7585.36,5591.32"/>
    </edge>
    <edge id=":05e93_0" function="internal" bidi=":05e93_3">
        <lane id=":05e93_0_0" index="0" allow="rail rail_electric" speed="110.00" length="2.95" shape="6873.77,6137.03 6870.82,6137.18"/>
    </edge>
    <edge id=":05e93_1" function="internal" bidi=":05e93_2">
        <lane id=":05e93_1_0" index="0" allow="rail rail_electric" speed="110.00" length="2.95" shape="6873.77,6137.03 6870.82,6137.09"/>
    </edge>
    <edge id=":05e93_2" function="internal" bidi=":05e93_1">
        <lane id=":05e93_2_0" index="0" allow="rail rail_electric" speed="110.00" length="2.95" shape="6870.82,6137.09 6873.77,6137.03"/>
    </edge>
    <edge id=":05e93_3" function="internal" bidi=":05e93_0">
        <lane id=":05e93_3_0" index="0" allow="rail rail_electric" speed="110.00" length="2.95" shape="6870.82,6137.18 6873.77,6137.03"/>
    </edge>
    <edge id=":06110_0" function="internal">
        <lane id=":06110_0_0" index="0" allow="rail rail_electric" speed="0.10" length="0.10" shape="6545.95,5955.92 6545.95,5955.92"/>
    </edge>
    <edge id=":0655bd97-167b-4ed9-902b-ab75c586ed82-km-25-gegen_0" function="internal" bidi=":0655bd97-167b-4ed9-902b-ab75c586ed82-km-25-gegen_1">
        <lane id=":0655bd97-167b-4ed9-902b-ab75c586ed82-km-25-gegen_0_0" index="0" allow="rail rail_electric" speed="110.00" length="0.10" shape="6407.81,6164.93 6407.81,6164.93"/>
    </edge>
    <edge id=":0655bd97-167b-4ed9-902b-ab75c586ed82-km-25-gegen_1" function="internal" bidi=":0655bd97-167b-4ed9-902b-ab75c586ed82-km-25-gegen_0">
        <lane id=":0655bd97-167b-4ed9-902b-ab75c586ed82-km-25-gegen_1_0" index="0" allow="rail rail_electric" speed="110.00" length="0.10" shape="6407.81,6164.93 6407.81,6164.93"/>
    </edge>
    <edge id=":0661a_0" function="internal" bidi=":0661a_2">
        <lane id=":0661a_0_0" index="0" allow="rail rail_electric" speed="110.00" length="3.04" shape="6429.50,5978.53 6426.52,5979.12"/>
    </edge>
    <edge id=":0661a_1" function="internal" bidi=":0661a_3">
        <lane id=":0661a_1_0" index="0" allow="rail rail_electric" speed="110.00" length="3.04" shape="6426.52,5979.12 6429.49,5978.48"/>
    </edge>
    <edge id=":0661a_2" function="internal" bidi=":0661a_0">
        <lane id=":0661a_2_0" index="0" allow="rail rail_electric" speed="110.00" length="3.04" shape="6426.52,5979.12 6429.50,5978.53"/>
    </edge>
    <edge id=":0661a_3" function="internal" bidi=":0661a_1">
        <lane id=":0661a_3_0" index="0" allow="rail rail_electric" speed="110.00" length="3.04" shape="6429.49,5978.48 6426.52,5979.12"/>
    </edge>
    <edge id=":068fb93a-5ec5-4dd1-85b0-8fe78ddd0608-km-25-gegen_0" function="internal" bidi=":068fb93a-5ec5-4dd1-85b0-8fe78ddd0608-km-25-gegen_1">
        <lane id=":068fb93a-5ec5-4dd1-85b0-8fe78ddd0608-km-25-gegen_0_0" index="0" allow="rail rail_electric" speed="110.00" length="0.10" shape="8588.04,5302.61 8588.04,5302.61"/>
    </edge>
    <edge id=":068fb93a-5ec5-4dd1-85b0-8fe78ddd0608-km-25-gegen_1" function="internal" bidi=":068fb93a-5ec5-4dd1-85b0-8fe78ddd0608-km-25-gegen_0">
        <lane id=":068fb93a-5ec5-4dd1-85b0-8fe78ddd0608-km-25-gegen_1_0" index="0" allow="rail rail_electric" speed="110.00" length="0.10" shape="8588.04,5302.61 8588.04,5302.61"/>
    </edge>
    <edge id=":06b55_0" function="internal">
        <lane id=":06b55_0_0" index="0" allow="rail rail_electric" speed="0.10" length="0.10" shape="3770.02,11622.23 3770.02,11622.23"/>
    </edge>
    <edge id=":07350_0" function="internal" bidi=":07350_3">
        <lane id=":07350_0_0" index="0" allow="rail rail_electric" speed="110.00" length="2.91" shape="3406.34,8133.95 3403.50,8134.59"/>
    </edge>
    <edge id=":07350_1" function="internal" bidi=":07350_2">
        <lane id=":07350_1_0" index="0" allow="rail rail_electric" speed="110.00" length="2.91" shape="3406.34,8133.95 3403.48,8134.51"/>
    </edge>
    <edge id=":07350_2" function="internal" bidi=":07350_1">
        <lane id=":07350_2_0" index="0" allow="rail rail_electric" speed="110.00" length="2.91" shape="3403.48,8134.51 3406.34,8133.95"/>
    </edge>
    <edge id=":07350_3" function="internal" bidi=":07350_0">
        <lane id=":07350_3_0" index="0" allow="rail rail_electric" speed="110.00" length="2.91" shape="3403.50,8134.59 3406.34,8133.95"/>
    </edge>
    <edge id=":07456e90-4750-4ea5-9740-6fff7cfdb900-km-25-gegen_0" function="internal" bidi=":07456e90-4750-4ea5-9740-6fff7cfdb900-km-25-gegen_1">
        <lane id=":07456e90-4750-4ea5-9740-6fff7cfdb900-km-25-gegen_0_0" index="0" allow="rail rail_electric" speed="110.00" length="0.10" shape="4075.56,7317.00 4075.56,7317.00"/>
    </edge>
    <edge id=":07456e90-4750-4ea5-9740-6fff7cfdb900-km-25-gegen_1" function="internal" bidi=":07456e90-4750-4ea5-9740-6fff7cfdb900-km-25-gegen_0">
        <lane id=":07456e90-4750-4ea5-9740-6fff7cfdb900-km-25-gegen_1_0" index="0" allow="rail rail_electric" speed="110.00" length="0.10" shape="4075.56,7317.00 4075.56,7317.00"/>
    </edge>
    <edge id=":07456e90-4750-4ea5-9740-6fff7cfdb900-km-351.49372462803444-in_0" function="internal" bidi=":07456e90-4750-4ea5-9740-6fff7cfdb900-km-351.49372462803444-in_1">
        <lane id=":07456e90-4750-4ea5-9740-6fff7cfdb900-km-351.49372462803444-in_0_0" index="0" allow="rail rail_electric" speed="110.00" length="0.10" shape="4157.17,7630.75 4157.17,7630.75"/>
    </edge>
    <edge id=":07456e90-4750-4ea5-9740-6fff7cfdb900-km-351.49372462803444-in_1" function="internal" bidi=":07456e90-4750-4ea5-9740-6fff7cfdb900-km-351.49372462803444-in_0">
        <lane id=":07456e90-4750-4ea5-9740-6fff7cfdb900-km-351.49372462803444-in_1_0" index="0" allow="rail rail_electric" speed="110.00" length="0.10" shape="4157.17,7630.75 4157.17,7630.75"/>
    </edge>
    <edge id=":07607_0" function="internal" bidi=":07607_3">
        <lane id=":07607_0_0" index="0" allow="rail rail_electric" speed="110.00" length="21.39" shape="3778.95,7388.70 3777.61,7384.16 3775.57,7378.57 3773.41,7373.03 3771.68,7368.60"/>
    </edge>
    <edge id=":07607_1" function="internal" bidi=":07607_2">
        <lane id=":07607_1_0" index="0" allow="rail rail_electric" speed="110.00" length="21.39" shape="3778.95,7388.70 3775.01,7367.68"/>
    </edge>
    <edge id=":07607_2" function="internal" bidi=":07607_1">
        <lane id=":07607_2_0" index="0" allow="rail rail_electric" speed="110.00" length="21.39" shape="3775.01,7367.68 3778.95,7388.70"/>
    </edge>
    <edge id=":07607_3" function="internal" bidi=":07607_0">
        <lane id=":07607_3_0" index="0" allow="rail rail_electric" speed="110.00" length="21.39" shape="3771.68,7368.60 3773.41,7373.03 3775.57,7378.57 3777.61,7384.16 3778.95,7388.70"/>
    </edge>
    <edge id=":076d0894-ecb1-4e1a-8b52-12b364353c55-km-1046.991806851688-in_0" function="internal" bidi=":076d0894-ecb1-4e1a-8b52-12b364353c55-km-1046.991806851688-in_1">
        <lane id=":076d0894-ecb1-4e1a-8b52-12b364353c55-km-1046.991806851688-in_0_0" index="0" allow="rail rail_electric" speed="110.00" length="0.10" shape="8605.94,5801.50 8605.94,5801.50"/>
    </edge>
    <edge id=":076d0894-ecb1-4e1a-8b52-12b364353c55-km-1046.991806851688-in_1" function="internal" bidi=":076d0894-ecb1-4e1a-8b52-12b364353c55-km-1046.991806851688-in_0">
        <lane id=":076d0894-ecb1-4e1a-8b52-12b364353c55-km-1046.991806851688-in_1_0" index="0" allow="rail rail_electric" speed="110.00" length="0.10" shape="8605.94,5801.50 8605.94,5801.50"/>
    </edge>
    <edge id=":076d0894-ecb1-4e1a-8b52-12b364353c55-km-25-gegen_0" function="internal" bidi=":076d0894-ecb1-4e1a-8b52-12b364353c55-km-25-gegen_1">
        <lane id=":076d0894-ecb1-4e1a-8b52-12b364353c55-km-25-gegen_0_0" index="0" allow="rail rail_electric" speed="110.00" length="0.10" shape="7603.79,5999.37 7603.79,5999.37"/>
    </edge>
    <edge id=":076d0894-ecb1-4e1a-8b52-12b364353c55-km-25-gegen_1" function="internal" bidi=":076d0894-ecb1-4e1a-8b52-12b364353c55-km-25-gegen_0">
        <lane id=":076d0894-ecb1-4e1a-8b52-12b364353c55-km-25-gegen_1_0" index="0" allow="rail rail_electric" speed="110.00" length="0.10" shape="7603.79,5999.37 7603.79,5999.37"/>
    </edge>
    <edge id=":07980_0" function="internal" bidi=":07980_3">
        <lane id=":07980_0_0" index="0" allow="rail rail_electric" speed="110.00" length="24.75" shape="4204.85,7694.28 4186.51,7677.65"/>
    </edge>
    <edge id=":07980_1" function="internal" bidi=":07980_2">
        <lane id=":07980_1_0" index="0" allow="rail rail_electric" speed="110.00" length="24.75" shape="4204.85,7694.28 4201.22,7690.48 4196.68,7685.02 4192.27,7679.44 4188.99,7675.30"/>
    </edge>
    <edge id=":07980_2" function="internal" bidi=":07980_1">
        <lane id=":07980_2_0" index="0" allow="rail rail_electric" speed="110.00" length="24.75" shape="4188.99,7675.30 4192.27,7679.44 4196.68,7685.02 4201.22,7690.48 4204.85,7694.28"/>
    </edge>
    <edge id=":07980_3" function="internal" bidi=":07980_0">
        <lane id=":07980_3_0" index="0" allow="rail rail_electric" speed="110.00" length="24.75" shape="4186.51,7677.65 4204.85,7694.28"/>
    </edge>
    <edge id=":07c8efd5-c844-4f4e-b1b7-e07ef324ba0f-km-25-gegen_0" function="internal">