<edges>
<!-- Track d806fee1-6913-4569-8b20-01fe1932ed2f -->
<edge id="2ed2f-0" from="ea114" to="d806fee1-6913-4569-8b20-01fe1932ed2f-km-25-gegen" shape="-2502198.1259712474,3467432.6135298666 -2502222.669270449,3467437.370258187" priority="-1" numLanes="1" speed="110.0" allow="rail rail_electric" spreadType="center" />
<edge id="2ed2f-0-re" from="d806fee1-6913-4569-8b20-01fe1932ed2f-km-25-gegen" to="ea114" shape="-2502222.669270449,3467437.370258187 -2502198.1259712474,3467432.6135298666" priority="-1" numLanes="1" speed="110.0" allow="rail rail_electric" spreadType="center" />
<!-- Track d806fee1-6913-4569-8b20-01fe1932ed2f -->
<edge id="2ed2f-1" from="d806fee1-6913-4569-8b20-01fe1932ed2f-km-25-gegen" to="d806fee1-6913-4569-8b20-01fe1932ed2f-km-321.5762856547864-in" shape="-2502222.669270449,3467437.370258187 -2502326.879854113,3467457.567275325 -2502513.502873321,3467495.4370743074" priority="-1" numLanes="1" speed="110.0" allow="rail rail_electric" spreadType="center" />
<edge id="2ed2f-1-re" from="d806fee1-6913-4569-8b20-01fe1932ed2f-km-321.5762856547864-in" to="d806fee1-6913-4569-8b20-01fe1932ed2f-km-25-gegen" shape="-2502513.502873321,3467495.4370743074 -2502326.879854113,3467457.567275325 -2502222.669270449,3467437.370258187" priority="-1" numLanes="1" speed="110.0" allow="rail rail_electric" spreadType="center" />
<!-- Track d806fee1-6913-4569-8b20-01fe1932ed2f -->
<edge id="2ed2f-2" from="d806fee1-6913-4569-8b20-01fe1932ed2f-km-321.5762856547864-in" to="cfc2c" shape="-2502513.502873321,3467495.4370743074 -2502538.003529084,3467500.4087809734" priority="-1" numLanes="1" speed="110.0" allow="rail rail_electric" spreadType="center" />
<edge id="2ed2f-2-re" from="cfc2c" to="d806fee1-6913-4569-8b20-01fe1932ed2f-km-321.5762856547864-in" shape="-2502538.003529084,3467500.4087809734 -2502513.502873321,3467495.4370743074" priority="-1" numLanes="1" speed="110.0" allow="rail rail_electric" spreadType="center" />
<!-- Track 1f093595-960c-45de-b900-f6f437443608 -->
<edge id="43608-0" from="ea114" to="1f093595-960c-45de-b900-f6f437443608-km-25-gegen" shape="-2502198.1259712474,3467432.6135298666 -2502173.6116686147,3467427.7095553116" priority="-1" numLanes="1" speed="110.0" allow="rail rail_electric" spreadType="center" />
<edge id="43608-0-re" from="1f093595-960c-45de-b900-f6f437443608-km-25-gegen" to="ea114" shape="-2502173.6116686147,3467427.7095553116 -2502198.1259712474,3467432.6135298666" priority="-1" numLanes="1" speed="110.0" allow="rail rail_electric" spreadType="center" />
<!-- Track 1f093595-960c-45de-b900-f6f437443608 -->
<edge id="43608-1" from="1f093595-960c-45de-b900-f6f437443608-km-25-gegen" to="1f093595-960c-45de-b900-f6f437443608-km-165.5616561823125-in" shape="-2502173.6116686147,3467427.7095553116 -2502035.7808294874,3467400.137123897" priority="-1" numLanes="1" speed="110.0" allow="rail rail_electric" spreadType="center" />
<edge id="43608-1-re" from="1f093595-960c-45de-b900-f6f437443608-km-165.5616561823125-in" to="1f093595-960c-45de-b900-f6f437443608-km-25-gegen" shape="-2502035.7808294874,3467400.137123897 -2502173.6116686147,3467427.7095553116" priority="-1" numLanes="1" speed="110.0" allow="rail rail_electric" spreadType="center" />
<!-- Track 1f093595-960c-45de-b900-f6f437443608 -->
<edge id="43608-2" from="1f093595-960c-45de-b900-f6f437443608-km-165.5616561823125-in" to="66c99" shape="-2502035.7808294874,3467400.137123897 -2502011.2665268546,3467395.2331493422" priority="-1" numLanes="1" speed="110.0" allow="rail rail_electric" spreadType="center" />
<edge id="43608-2-re" from="66c99" to="1f093595-960c-45de-b900-f6f437443608-km-165.5616561823125-in" shape="-2502011.2665268546,3467395.2331493422 -2502035.7808294874,3467400.137123897" priority="-1" numLanes="1" speed="110.0" allow="rail rail_electric" spreadType="center" />
<!-- Track da6681bd-b886-432c-8bb7-2f68ab2b47bd -->
<edge id="b47bd-0" from="ea114" to="da6681bd-b886-432c-8bb7-2f68ab2b47bd-km-25-gegen" shape="-2502198.1259712474,3467432.6135298666 -2502173.3051357637,3467429.6258675884" priority="-1" numLanes="1" speed="110.0" allow="rail rail_electric" spreadType="center" />
<edge id="b47bd-0-re" from="da6681bd-b886-432c-8bb7-2f68ab2b47bd-km-25-gegen" to="ea114" shape="-2502173.3051357637,3467429.6258675884 -2502198.1259712474,3467432.6135298666" priority="-1" numLanes="1" speed="110.0" allow="rail rail_electric" spreadType="center" />
<!-- Track da6681bd-b886-432c-8bb7-2f68ab2b47bd -->
<edge id="b47bd-1" from="da6681bd-b886-432c-8bb7-2f68ab2b47bd-km-25-gegen" to="da6681bd-b886-432c-8bb7-2f68ab2b47bd-km-852.2588211144425-in" shape="-2502173.3051357637,3467429.6258675884 -2501986.5440240223,3467407.1455957647 -2501941.394594235,3467406.669230707 -2501900.14020605,3467408.084832847 -2501830.2628213717,3467412.3299855366 -2501757.781161777,3467419.529616246 -2501699.9119592384,3467418.698338378 -2501637.2374989176,3467415.157012349 -2501580.245985288,3467407.526348047 -2501352.99611748,3467362.206877052" priority="-1" numLanes="1" speed="110.0" allow="rail rail_electric" spreadType="center" />
<edge id="b47bd-1-re" from="da6681bd-b886-432c-8bb7-2f68ab2b47bd-km-852.2588211144425-in" to="da6681bd-b886-432c-8bb7-2f68ab2b47bd-km-25-gegen" shape="-2501352.99611748,3467362.206877052 -2501580.245985288,3467407.526348047 -2501637.2374989176,3467415.157012349 -2501699.9119592384,3467418.698338378 -2501757.781161777,3467419.529616246 -2501830.2628213717,3467412.3299855366 -2501900.14020605,3467408.084832847 -2501941.394594235,3467406.669230707 -2501986.5440240223,3467407.1455957647 -2502173.3051357637,3467429.6258675884" priority="-1" numLanes="1" speed="110.0" allow="rail rail_electric" spreadType="center" />
<!-- Track da6681bd-b886-432c-8bb7-2f68ab2b47bd -->
<edge id="b47bd-2" from="da6681bd-b886-432c-8bb7-2f68ab2b47bd-km-852.2588211144425-in" to="941e5" shape="-2501352.99611748,3467362.206877052 -2501328.4788967334,3467357.3175123837" priority="-1" numLanes="1" speed="110.0" allow="rail rail_electric" spreadType="center" />
<edge id="b47bd-2-re" from="941e5" to="da6681bd-b886-432c-8bb7-2f68ab2b47bd-km-852.2588211144425-in" shape="-2501328.4788967334,3467357.3175123837 -2501352.99611748,3467362.206877052" priority="-1" numLanes="1" speed="110.0" allow="rail rail_electric" spreadType="center" />
<!-- Track 3defca99-4210-4f38-80d2-e8e331d501bc -->
<edge id="501bc-0" from="66c99" to="3defca99-4210-4f38-80d2-e8e331d501bc-km-25-gegen" shape="-2502011.2665268546,3467395.2331493422 -2501986.4846162554,3467391.938167242" priority="-1" numLanes="1" speed="110.0" allow="rail rail_electric" spreadType="center" />
<edge id="501bc-0-re" from="3defca99-4210-4f38-80d2-e8e331d501bc-km-25-gegen" to="66c99" shape="-2501986.4846162554,3467391.938167242 -2502011.2665268546,3467395.2331493422" priority="-1" numLanes="1" speed="110.0" allow="rail rail_electric" spreadType="center" />
<!-- Track 3defca99-4210-4f38-80d2-e8e331d501bc -->
<edge id="501bc-1" from="3defca99-4210-4f38-80d2-e8e331d501bc-km-25-gegen" to="3defca99-4210-4f38-80d2-e8e331d501bc-km-788.1457216628645-in" shape="-2501986.4846162554,3467391.938167242 -2501902.187891895,3467380.730145294 -2501866.152929621,3467378.21362713 -2501673.0765554016,3467367.3538590707 -2501592.416926997,3467359.140942909 -2501551.447303158,3467353.074182581 -2501505.253120913,3467345.780980693 -2501231.263445984,3467291.352738634" priority="-1" numLanes="1" speed="110.0" allow="rail rail_electric" spreadType="center" />
<edge id="501bc-1-re" from="3defca99-4210-4f38-80d2-e8e331d501bc-km-788.1457216628645-in" to="3defca99-4210-4f38-80d2-e8e331d501bc-km-25-gegen" shape="-2501231.263445984,3467291.352738634 -2501505.253120913,3467345.780980693 -2501551.447303158,3467353.074182581 -2501592.416926997,3467359.140942909 -2501673.0765554016,3467367.3538590707 -2501866.152929621,3467378.21362713 -2501902.187891895,3467380.730145294 -2501986.4846162554,3467391.938167242" priority="-1" numLanes="1" speed="110.0" allow="rail rail_electric" spreadType="center" />
<!-- Track 3defca99-4210-4f38-80d2-e8e331d501bc -->
<edge id="501bc-2" from="3defca99-4210-4f38-80d2-e8e331d501bc-km-788.1457216628645-in" to="7c26d" shape="-2501231.263445984,3467291.352738634 -2501206.7425870663,3467286.4816527255" priority="-1" numLanes="1" speed="110.0" allow="rail rail_electric" spreadType="center" />
<edge id="501bc-2-re" from="7c26d" to="3defca99-4210-4f38-80d2-e8e331d501bc-km-788.1457216628645-in" shape="-2501206.7425870663,3467286.4816527255 -2501231.263445984,3467291.352738634" priority="-1" numLanes="1" speed="110.0" allow="rail rail_electric" spreadType="center" />
<!-- Track 7b293067-d5f3-4b22-8c43-ef6b0ebd911e -->
<edge id="d911e-0" from="66c99" to="7b293067-d5f3-4b22-8c43-ef6b0ebd911e-km-25-gegen" shape="-2502011.2665268546,3467395.2331493422 -2501986.867727038,3467389.7835101327" priority="-1" numLanes="1" speed="110.0" allow="rail rail_electric" spreadType="center" />
<edge id="d911e-0-re" from="7b293067-d5f3-4b22-8c43-ef6b0ebd911e-km-25-gegen" to="66c99" shape="-2501986.867727038,3467389.7835101327 -2502011.2665268546,3467395.2331493422" priority="-1" numLanes="1" speed="110.0" allow="rail rail_electric" spreadType="center" />
<!-- Track 7b293067-d5f3-4b22-8c43-ef6b0ebd911e -->
<edge id="d911e-1" from="7b293067-d5f3-4b22-8c43-ef6b0ebd911e-km-25-gegen" to="7b293067-d5f3-4b22-8c43-ef6b0ebd911e-km-238.52550007798908-in" shape="-2501986.867727038,3467389.7835101327 -2501807.904326056,3467349.8108076043 -2501778.5806097006,3467342.790603453" priority="-1" numLanes="1" speed="110.0" allow="rail rail_electric" spreadType="center" />
<edge id="d911e-1-re" from="7b293067-d5f3-4b22-8c43-ef6b0ebd911e-km-238.52550007798908-in" to="7b293067-d5f3-4b22-8c43-ef6b0ebd911e-km-25-gegen" shape="-2501778.5806097006,3467342.790603453 -2501807.904326056,3467349.8108076043 -2501986.867727038,3467389.7835101327" priority="-1" numLanes="1" speed="110.0" allow="rail rail_electric" spreadType="center" />
<!-- Track 7b293067-d5f3-4b22-8c43-ef6b0ebd911e -->
<edge id="d911e-2" from="7b293067-d5f3-4b22-8c43-ef6b0ebd911e-km-238.52550007798908-in" to="141f3" shape="-2501778.5806097006,3467342.790603453 -2501754.2676406577,3467336.9699903987" priority="-1" numLanes="1" speed="110.0" allow="rail rail_electric" spreadType="center" />
<edge id="d911e-2-re" from="141f3" to="7b293067-d5f3-4b22-8c43-ef6b0ebd911e-km-238.52550007798908-in" shape="-2501754.2676406577,3467336.9699903987 -2501778.5806097006,3467342.790603453" priority="-1" numLanes="1" speed="110.0" allow="rail rail_electric" spreadType="center" />
<!-- Track 6976fa03-c0c3-452f-ada6-ed7752c8f4be -->
<edge id="8f4be-0" from="7c26d" to="6976fa03-c0c3-452f-ada6-ed7752c8f4be-km-25-gegen" shape="-2501206.7425870663,3467286.4816527255 -2501182.2386736786,3467281.5260267616" priority="-1" numLanes="1" speed="110.0" allow="rail rail_electric" spreadType="center" />
<edge id="8f4be-0-re" from="6976fa03-c0c3-452f-ada6-ed7752c8f4be-km-25-gegen" to="7c26d" shape="-2501182.2386736786,3467281.5260267616 -2501206.7425870663,3467286.4816527255" priority="-1" numLanes="1" speed="110.0" allow="rail rail_electric" spreadType="center" />
<!-- Track 6976fa03-c0c3-452f-ada6-ed7752c8f4be -->
<edge id="8f4be-1" from="6976fa03-c0c3-452f-ada6-ed7752c8f4be-km-25-gegen" to="6976fa03-c0c3-452f-ada6-ed7752c8f4be-km-169.7673894741766-in" shape="-2501182.2386736786,3467281.5260267616 -2501040.343970758,3467252.8295054003" priority="-1" numLanes="1" speed="110.0" allow="rail rail_electric" spreadType="center" />
<edge id="8f4be-1-re" from="6976fa03-c0c3-452f-ada6-ed7752c8f4be-km-169.7673894741766-in" to="6976fa03-c0c3-452f-ada6-ed7752c8f4be-km-25-gegen" shape="-2501040.343970758,3467252.8295054003 -2501182.2386736786,3467281.5260267616" priority="-1" numLanes="1" speed="110.0" allow="rail rail_electric" spreadType="center" />
<!-- Track 6976fa03-c0c3-452f-ada6-ed7752c8f4be -->
<edge id="8f4be-2" from="6976fa03-c0c3-452f-ada6-ed7752c8f4be-km-169.7673894741766-in" to="e5737" shape="-2501040.343970758,3467252.8295054003 -2501015.8400573703,3467247.8738794364" priority="-1" numLanes="1" speed="110.0" allow="rail rail_electric" spreadType="center" />
<edge id="8f4be-2-re" from="e5737" to="6976fa03-c0c3-452f-ada6-ed7752c8f4be-km-169.7673894741766-in" shape="-2501015.8400573703,3467247.8738794364 -2501040.343970758,3467252.8295054003" priority="-1" numLanes="1" speed="110.0" allow="rail rail_electric" spreadType="center" />
<!-- Track 6741eb7b-6853-4835-b8fa-f48026aa405d -->
<edge id="a405d-0" from="7c26d" to="6741eb7b-6853-4835-b8fa-f48026aa405d-km-25-gegen" shape="-2501206.7425870663,3467286.4816527255 -2501231.489801964,3467290.0278274002" priority="-1" numLanes="1" speed="110.0" allow="rail rail_electric" spreadType="center" />
<edge id="a405d-0-re" from="6741eb7b-6853-4835-b8fa-f48026aa405d-km-25-gegen" to="7c26d" shape="-2501231.489801964,3467290.0278274002 -2501206.7425870663,3467286.4816527255" priority="-1" numLanes="1" speed="110.0" allow="rail rail_electric" spreadType="center" />
<!-- Track 6741eb7b-6853-4835-b8fa-f48026aa405d -->
<edge id="a405d-1" from="6741eb7b-6853-4835-b8fa-f48026aa405d-km-25-gegen" to="7766a" shape="-2501231.489801964,3467290.0278274002 -2501292.2642674847,3467298.736559732 -2501351.8286421327,3467306.9248945564 -2501777.896236745,3467364.0153826177" priority="-1" numLanes="1" speed="110.0" allow="rail rail_electric" spreadType="center" />
<edge id="a405d-1-re" from="7766a" to="6741eb7b-6853-4835-b8fa-f48026aa405d-km-25-gegen" shape="-2501777.896236745,3467364.0153826177 -2501351.8286421327,3467306.9248945564 -2501292.2642674847,3467298.736559732 -2501231.489801964,3467290.0278274002" priority="-1" numLanes="1" speed="110.0" allow="rail rail_electric" spreadType="center" />
<!-- Track d32c1ea8-1d49-48a1-9363-8c872d4243ec -->
<edge id="243ec-0" from="e5737" to="d32c1ea8-1d49-48a1-9363-8c872d4243ec-km-25-gegen" shape="-2501015.8400573703,3467247.8738794364 -2500991.319573685,3467243.0009050015" priority="-1" numLanes="1" speed="110.0" allow="rail rail_electric" spreadType="center" />
<edge id="243ec-0-re" from="d32c1ea8-1d49-48a1-9363-8c872d4243ec-km-25-gegen" to="e5737" shape="-2500991.319573685,3467243.0009050015 -2501015.8400573703,3467247.8738794364" priority="-1" numLanes="1" speed="110.0" allow="rail rail_electric" spreadType="center" />
<!-- Track d32c1ea8-1d49-48a1-9363-8c872d4243ec -->
<edge id="243ec-1" from="d32c1ea8-1d49-48a1-9363-8c872d4243ec-km-25-gegen" to="d32c1ea8-1d49-48a1-9363-8c872d4243ec-km-684.7733628877847-in" shape="-2500991.319573685,3467243.0009050015 -2500344.2010944607,3467114.398555789" priority="-1" numLanes="1" speed="110.0" allow="rail rail_electric" spreadType="center" />
<edge id="243ec-1-re" from="d32c1ea8-1d49-48a1-9363-8c872d4243ec-km-684.7733628877847-in" to="d32c1ea8-1d49-48a1-9363-8c872d4243ec-km-25-gegen" shape="-2500344.2010944607,3467114.398555789 -2500991.319573685,3467243.0009050015" priority="-1" numLanes="1" speed="110.0" allow="rail rail_electric" spreadType="center" />
<!-- Track d32c1ea8-1d49-48a1-9363-8c872d4243ec -->
<edge id="243ec-2" from="d32c1ea8-1d49-48a1-9363-8c872d4243ec-km-684.7733628877847-in" to="f6656" shape="-2500344.2010944607,3467114.398555789 -2500319.680610776,3467109.5255813543" priority="-1" numLanes="1" speed="110.0" allow="rail rail_electric" spreadType="center" />
<edge id="243ec-2-re" from="f6656" to="d32c1ea8-1d49-48a1-9363-8c872d4243ec-km-684.7733628877847-in" shape="-2500319.680610776,3467109.5255813543 -2500344.2010944607,3467114.398555789" priority="-1" numLanes="1" speed="110.0" allow="rail rail_electric" spreadType="center" />
<!-- Track 4996f065-795b-4d42-a182-827cd9615975 -->
<edge id="15975-0" from="e5737" to="4996f065-795b-4d42-a182-827cd9615975-km-25-gegen" shape="-2501015.8400573703,3467247.8738794364 -2501040.129426962,3467253.792200551" priority="-1" numLanes="1" speed="110.0" allow="rail rail_electric" spreadType="center" />
<edge id="15975-0-re" from="4996f065-795b-4d42-a182-827cd9615975-km-25-gegen" to="e5737" shape="-2501040.129426962,3467253.792200551 -2501015.8400573703,3467247.8738794364" priority="-1" numLanes="1" speed="110.0" allow="rail rail_electric" spreadType="center" />
<!-- Track 4996f065-795b-4d42-a182-827cd9615975 -->
<edge id="15975-1" from="4996f065-795b-4d42-a182-827cd9615975-km-25-gegen" to="4f750" shape="-2501040.129426962,3467253.792200551 -2501115.083613891,3467272.0554554053 -2501236.739845654,3467305.6705410834 -2501274.012567208,3467312.6615284346 -2501684.7521156543,3467394.7215760183" priority="-1" numLanes="1" speed="110.0" allow="rail rail_electric" spreadType="center" />
<edge id="15975-1-re" from="4f750" to="4996f065-795b-4d42-a182-827cd9615975-km-25-gegen" shape="-2501684.7521156543,3467394.7215760183 -2501274.012567208,3467312.6615284346 -2501236.739845654,3467305.6705410834 -2501115.083613891,3467272.0554554053 -2501040.129426962,3467253.792200551" priority="-1" numLanes="1" speed="110.0" allow="rail rail_electric" spreadType="center" />
<!-- Track 62cae233-dd42-4426-a497-85cbfdba55f2 -->
<edge id="a55f2-0" from="a4ce9" to="62cae233-dd42-4426-a497-85cbfdba55f2-km-25-gegen" shape="-2498540.5476426897,3466763.493575601 -2498516.147492651,3466758.0499850498" priority="-1" numLanes="1" speed="110.0" allow="rail rail_electric" spreadType="center" />
<edge id="a55f2-0-re" from="62cae233-dd42-4426-a497-85cbfdba55f2-km-25-gegen" to="a4ce9" shape="-2498516.147492651,3466758.0499850498 -2498540.5476426897,3466763.493575601" priority="-1" numLanes="1" speed="110.0" allow="rail rail_electric" spreadType="center" />
<!-- Track 62cae233-dd42-4426-a497-85cbfdba55f2 -->
<edge id="a55f2-1" from="62cae233-dd42-4426-a497-85cbfdba55f2-km-25-gegen" to="62cae233-dd42-4426-a497-85cbfdba55f2-km-254.45431792963808-in" shape="-2498516.147492651,3466758.0499850498 -2498402.661352981,3466732.7316129655 -2498329.9658797192,3466713.124746185 -2498293.0708839176,3466704.520165761" priority="-1" numLanes="1" speed="110.0" allow="rail rail_electric" spreadType="center" />
<edge id="a55f2-1-re" from="62cae233-dd42-4426-a497-85cbfdba55f2-km-254.45431792963808-in" to="62cae233-dd42-4426-a497-85cbfdba55f2-km-25-gegen" shape="-2498293.0708839176,3466704.520165761 -2498329.9658797192,3466713.124746185 -2498402.661352981,3466732.7316129655 -2498516.147492651,3466758.0499850498" priority="-1" numLanes="1" speed="110.0" allow="rail rail_electric" spreadType="center" />
<!-- Track 62cae233-dd42-4426-a497-85cbfdba55f2 -->
<edge id="a55f2-2" from="62cae233-dd42-4426-a497-85cbfdba55f2-km-254.45431792963808-in" to="bfbea" shape="-2498293.0708839176,3466704.520165761 -2498268.7242329344,3466698.8420863394" priority="-1" numLanes="1" speed="110.0" allow="rail rail_electric" spreadType="center" />
<edge id="a55f2-2-re" from="bfbea" to="62cae233-dd42-4426-a497-85cbfdba55f2-km-254.45431792963808-in" shape="-2498268.7242329344,3466698.8420863394 -2498293.0708839176,3466704.520165761" priority="-1" numLanes="1" speed="110.0" allow="rail rail_electric" spreadType="center" />
<!-- Track 7861c6c9-eb12-4240-b470-9f9e7a06fa8e -->
<edge id="6fa8e-0" from="a4ce9" to="6193e" shape="-2498540.5476426897,3466763.493575601 -2498576.533874395,3466770.6508105323" priority="-1" numLanes="1" speed="110.0" allow="rail rail_electric" spreadType="center" />
<edge id="6fa8e-0-re" from="6193e" to="a4ce9" shape="-2498576.533874395,3466770.6508105323 -2498540.5476426897,3466763.493575601" priority="-1" numLanes="1" speed="110.0" allow="rail rail_electric" spreadType="center" />
<!-- Track f61e00e0-9323-4ef7-b885-953d8c46dd48 -->
<edge id="6dd48-0" from="a4ce9" to="f61e00e0-9323-4ef7-b885-953d8c46dd48-km-25-gegen" shape="-2498540.5476426897,3466763.493575601 -2498515.754955294,3466760.2806872274" priority="-1" numLanes="1" speed="110.0" allow="rail rail_electric" spreadType="center" />
<edge id="6dd48-0-re" from="f61e00e0-9323-4ef7-b885-953d8c46dd48-km-25-gegen" to="a4ce9" shape="-2498515.754955294,3466760.2806872274 -2498540.5476426897,3466763.493575601" priority="-1" numLanes="1" speed="110.0" allow="rail rail_electric" spreadType="center" />
<!-- Track f61e00e0-9323-4ef7-b885-953d8c46dd48 -->
<edge id="6dd48-1" from="f61e00e0-9323-4ef7-b885-953d8c46dd48-km-25-gegen" to="f61e00e0-9323-4ef7-b885-953d8c46dd48-km-1000-in" shape="-2498515.754955294,3466760.2806872274 -2498252.6826554104,3466726.1891052946 -2498197.4809421357,3466721.890851874 -2498139.0232320046,3466720.7062249817 -2498060.3311859164,3466723.9792294167 -2497982.494693488,3466733.0181929395 -2497909.9296493446,3466748.156458294 -2497850.3497261205,3466766.0617731884 -2497809.3890527356,3466783.1006195005 -2497777.617311281,3466798.021042254 -2497757.6510621565,3466807.115437001 -2497727.259331015,3466826.298858639 -2497702.7541591264,3466844.8849410564 -2497672.7244021073,3466868.5284555852 -2497638.2983654123,3466909.567890471 -2497615.443567487,3466945.4508802867" priority="-1" numLanes="1" speed="110.0" allow="rail rail_electric" spreadType="center" />
<edge id="6dd48-1-re" from="f61e00e0-9323-4ef7-b885-953d8c46dd48-km-1000-in" to="f61e00e0-9323-4ef7-b885-953d8c46dd48-km-25-gegen" shape="-2497615.443567487,3466945.4508802867 -2497638.2983654123,3466909.567890471 -2497672.7244021073,3466868.5284555852 -2497702.7541591264,3466844.8849410564 -2497727.259331015,3466826.298858639 -2497757.6510621565,3466807.115437001 -2497777.617311281,3466798.021042254 -2497809.3890527356,3466783.1006195005 -2497850.3497261205,3466766.0617731884 -2497909.9296493446,3466748.156458294 -2497982.494693488,3466733.0181929395 -2498060.3311859164,3466723.9792294167 -2498139.0232320046,3466720.7062249817 -2498197.4809421357,3466721.890851874 -2498252.6826554104,3466726.1891052946 -2498515.754955294,3466760.2806872274" priority="-1" numLanes="1" speed="110.0" allow="rail rail_electric" spreadType="center" />
<!-- Track f61e00e0-9323-4ef7-b885-953d8c46dd48 -->
<edge id="6dd48-2" from="f61e00e0-9323-4ef7-b885-953d8c46dd48-km-1000-in" to="f61e00e0-9323-4ef7-b885-953d8c46dd48-km-1000-gegen" shape="-2497615.443567487,3466945.4508802867 -2497615.443567487,3466945.4508802867" priority="-1" numLanes="1" speed="110.0" allow="rail rail_electric" spreadType="center" />
<edge id="6dd48-2-re" from="f61e00e0-9323-4ef7-b885-953d8c46dd48-km-1000-gegen" to="f61e00e0-9323-4ef7-b885-953d8c46dd48-km-1000-in" shape="-2497615.443567487,3466945.4508802867 -2497615.443567487,3466945.4508802867" priority="-1" numLanes="1" speed="110.0" allow="rail rail_electric" spreadType="center" />
<!-- Track f61e00e0-9323-4ef7-b885-953d8c46dd48 -->
<edge id="6dd48-3" from="f61e00e0-9323-4ef7-b885-953d8c46dd48-km-1000-gegen" to="f61e00e0-9323-4ef7-b885-953d8c46dd48-km-2000-in" shape="-2497615.443567487,3466945.4508802867 -2497613.251409583,3466948.8926599957 -2497593.607536464,3466989.272440452 -2497575.081284268,3467046.9352106173 -2497569.9086821945,3467066.77810714 -2497563.7344133407,3467105.9624592084 -2497557.5013369834,3467146.900458861 -2497556.054178887,3467193.9233511053 -2497556.2335239397,3467236.880963335 -2497560.396947277,3467302.475907631 -2497575.6325155986,3467387.626045577 -2497591.9254659587,3467452.6755200922 -2497624.940307323,3467543.711189067 -2497663.9474137807,3467628.1184534803 -2497712.753345648,3467713.11196517 -2497760.352298308,3467784.1246131547 -2497825.0446568336,3467867.2288087048 -2497825.6623152806,3467867.93357421" priority="-1" numLanes="1" speed="110.0" allow="rail rail_electric" spreadType="center" />
<edge id="6dd48-3-re" from="f61e00e0-9323-4ef7-b885-953d8c46dd48-km-2000-in" to="f61e00e0-9323-4ef7-b885-953d8c46dd48-km-1000-gegen" shape="-2497825.6623152806,3467867.93357421 -2497825.0446568336,3467867.2288087048 -2497760.352298308,3467784.1246131547 -2497712.753345648,3467713.11196517 -2497663.9474137807,3467628.1184534803 -2497624.940307323,3467543.711189067 -2497591.9254659587,3467452.6755200922 -2497575.6325155986,3467387.626045577 -2497560.396947277,3467302.475907631 -2497556.2335239397,3467236.880963335 -2497556.054178887,3467193.9233511053 -2497557.5013369834,3467146.900458861 -2497563.7344133407,3467105.9624592084 -2497569.9086821945,3467066.77810714 -2497575.081284268,3467046.9352106173 -2497593.607536464,3466989.272440452 -2497613.251409583,3466948.8926599957 -2497615.443567487,3466945.4508802867" priority="-1" numLanes="1" speed="110.0" allow="rail rail_electric" spreadType="center" />
<!-- Track f61e00e0-9323-4ef7-b885-953d8c46dd48 -->
<edge id="6dd48-4" from="f61e00e0-9323-4ef7-b885-953d8c46dd48-km-2000-in" to="f61e00e0-9323-4ef7-b885-953d8c46dd48-km-2000-gegen" shape="-2497825.6623152806,3467867.93357421 -2497825.6623152806,3467867.93357421" priority="-1" numLanes="1" speed="110.0" allow="rail rail_electric" spreadType="center" />
<edge id="6dd48-4-re" from="f61e00e0-9323-4ef7-b885-953d8c46dd48-km-2000-gegen" to="f61e00e0-9323-4ef7-b885-953d8c46dd48-km-2000-in" shape="-2497825.6623152806,3467867.93357421 -2497825.6623152806,3467867.93357421" priority="-1" numLanes="1" speed="110.0" allow="rail rail_electric" spreadType="center" />
<!-- Track f61e00e0-9323-4ef7-b885-953d8c46dd48 -->
<edge id="6dd48-5" from="f61e00e0-9323-4ef7-b885-953d8c46dd48-km-2000-gegen" to="f61e00e0-9323-4ef7-b885-953d8c46dd48-km-3000-in" shape="-2497825.6623152806,3467867.93357421 -2497882.947905049,3467933.2980289906 -2497954.1841731174,3468006.7474954054 -2498048.3906442933,3468092.7958315127 -2498147.851398303,3468178.256744899 -2498263.9241143996,3468270.6784133688 -2498342.1996997884,3468330.467676915 -2498420.8086415282,3468386.541345766 -2498589.5858431384,3468509.150828742" priority="-1" numLanes="1" speed="110.0" allow="rail rail_electric" spreadType="center" />
<edge id="6dd48-5-re" from="f61e00e0-9323-4ef7-b885-953d8c46dd48-km-3000-in" to="f61e00e0-9323-4ef7-b885-953d8c46dd48-km-2000-gegen" shape="-2498589.5858431384,3468509.150828742 -2498420.8086415282,3468386.541345766 -2498342.1996997884,3468330.467676915 -2498263.9241143996,3468270.6784133688 -2498147.851398303,3468178.256744899 -2498048.3906442933,3468092.7958315127 -2497954.1841731174,3468006.7474954054 -2497882.947905049,3467933.2980289906 -2497825.6623152806,3467867.93357421" priority="-1" numLanes="1" speed="110.0" allow="rail rail_electric" spreadType="center" />
<!-- Track f61e00e0-9323-4ef7-b885-953d8c46dd48 -->
<edge id="6dd48-6" from="f61e00e0-9323-4ef7-b885-953d8c46dd48-km-3000-in" to="f61e00e0-9323-4ef7-b885-953d8c46dd48-km-3000-gegen" shape="-2498589.5858431384,3468509.150828742 -2498589.5858431384,3468509.150828742" priority="-1" numLanes="1" speed="110.0" allow="rail rail_electric" spreadType="center" />
<edge id="6dd48-6-re" from="f61e00e0-9323-4ef7-b885-953d8c46dd48-km-3000-gegen" to="f61e00e0-9323-4ef7-b885-953d8c46dd48-km-3000-in" shape="-2498589.5858431384,3468509.150828742 -2498589.5858431384,3468509.150828742" priority="-1" numLanes="1" speed="110.0" allow="rail rail_electric" spreadType="center" />
<!-- Track f61e00e0-9323-4ef7-b885-953d8c46dd48 -->
<edge id="6dd48-7" from="f61e00e0-9323-4ef7-b885-953d8c46dd48-km-3000-gegen" to="f61e00e0-9323-4ef7-b885-953d8c46dd48-km-4000-in" shape="-2498589.5858431384,3468509.150828742 -2498652.2203915613,3468554.6521732677 -2499030.1810028283,3468824.3028133363 -2499401.620554218,3469092.7506764457" priority="-1" numLanes="1" speed="110.0" allow="rail rail_electric" spreadType="center" />
<edge id="6dd48-7-re" from="f61e00e0-9323-4ef7-b885-953d8c46dd48-km-4000-in" to="f61e00e0-9323-4ef7-b885-953d8c46dd48-km-3000-gegen" shape="-2499401.620554218,3469092.7506764457 -2499030.1810028283,3468824.3028133363 -2498652.2203915613,3468554.6521732677 -2498589.5858431384,3468509.150828742" priority="-1" numLanes="1" speed="110.0" allow="rail rail_electric" spreadType="center" />
<!-- Track f61e00e0-9323-4ef7-b885-953d8c46dd48 -->
<edge id="6dd48-8" from="f61e00e0-9323-4ef7-b885-953d8c46dd48-km-4000-in" to="f61e00e0-9323-4ef7-b885-953d8c46dd48-km-4000-gegen" shape="-2499401.620554218,3469092.7506764457 -2499401.620554218,3469092.7506764457" priority="-1" numLanes="1" speed="110.0" allow="rail rail_electric" spreadType="center" />
<edge id="6dd48-8-re" from="f61e00e0-9323-4ef7-b885-953d8c46dd48-km-4000-gegen" to="f61e00e0-9323-4ef7-b885-953d8c46dd48-km-4000-in" shape="-2499401.620554218,3469092.7506764457 -2499401.620554218,3469092.7506764457" priority="-1" numLanes="1" speed="110.0" allow="rail rail_electric" spreadType="center" />
<!-- Track f61e00e0-9323-4ef7-b885-953d8c46dd48 -->
<edge id="6dd48-9" from="f61e00e0-9323-4ef7-b885-953d8c46dd48-km-4000-gegen" to="f61e00e0-9323-4ef7-b885-953d8c46dd48-km-5560.253303703657-in" shape="-2499401.620554218,3469092.7506764457 -2499492.798785879,3469158.6472708173 -2499607.485439456,3469240.351318307 -2500024.2620206666,3469539.4774315134 -2500184.6441849023,3469655.137520615 -2500305.0514081763,3469739.8357069865 -2500418.802494419,3469824.2594126724 -2500574.488916107,3469936.359394327 -2500644.862524883,3469986.7818101123 -2500668.2600728334,3470003.756698894" priority="-1" numLanes="1" speed="110.0" allow="rail rail_electric" spreadType="center" />
<edge id="6dd48-9-re" from="f61e00e0-9323-4ef7-b885-953d8c46dd48-km-5560.253303703657-in" to="f61e00e0-9323-4ef7-b885-953d8c46dd48-km-4000-gegen" shape="-2500668.2600728334,3470003.756698894 -2500644.862524883,3469986.7818101123 -2500574.488916107,3469936.359394327 -2500418.802494419,3469824.2594126724 -2500305.0514081763,3469739.8357069865 -2500184.6441849023,3469655.137520615 -2500024.2620206666,3469539.4774315134 -2499607.485439456,3469240.351318307 -2499492.798785879,3469158.6472708173 -2499401.620554218,3469092.7506764457" priority="-1" numLanes="1" speed="110.0" allow="rail rail_electric" spreadType="center" />
<!-- Track f61e00e0-9323-4ef7-b885-953d8c46dd48 -->
<edge id="6dd48-10" from="f61e00e0-9323-4ef7-b885-953d8c46dd48-km-5560.253303703657-in" to="b524c" shape="-2500668.2600728334,3470003.756698894 -2500688.495537996,3470018.4375009723" priority="-1" numLanes="1" speed="110.0" allow="rail rail_electric" spreadType="center" />