<?xml version="1.0" encoding="UTF-8"?>
<routes xmlns:xsi="http://www.w3.org/2001/XMLSchema-instance" xsi:noNamespaceSchemaLocation="http://sumo.dlr.de/xsd/routes_file.xsd">
	<route edges="7ec78-1 7ec78-2 a4491-2-re a4491-1-re" color="242,110,141" id="route_A2862EAF-F228-4EA4-A03E-5538B9F7EC78-KM-321.5762856547864-IN-5B120B68-5985-422D-A8A4-19FE648A4491-KM-25-GEGEN"/>
	<route edges="7ec78-1 7ec78-2 76352-2-re 76352-1-re" color="179,56,23" id="route_A2862EAF-F228-4EA4-A03E-5538B9F7EC78-KM-321.5762856547864-IN-6A879B8A-2C35-406D-A915-AE475C176352-KM-25-GEGEN"/>
	<route edges="7ec78-1-re 7ec78-0-re 31377-0 31377-1" color="35,205,225" id="route_A2862EAF-F228-4EA4-A03E-5538B9F7EC78-KM-25-GEGEN-CA952F24-3338-4511-8404-C9B5AC631377-KM-852.2588211144425-IN"/>
	<route edges="7ec78-1-re 7ec78-0-re ba8c6-0 ba8c6-1" color="244,203,142" id="route_A2862EAF-F228-4EA4-A03E-5538B9F7EC78-KM-25-GEGEN-DFCF90F4-D92F-45DA-AD11-E4075AFBA8C6-KM-165.5616561823125-IN"/>
	<route edges="ba8c6-1 ba8c6-2 2c5ad-0 2c5ad-1" color="82,20,147" id="route_DFCF90F4-D92F-45DA-AD11-E4075AFBA8C6-KM-165.5616561823125-IN-3BCAC79D-AA8E-4DC6-8463-563CE1F2C5AD-KM-788.1457216628645-IN"/>
	<route edges="ba8c6-1 ba8c6-2 100a7-0 100a7-1" color="58,134,149" id="route_DFCF90F4-D92F-45DA-AD11-E4075AFBA8C6-KM-165.5616561823125-IN-AF183D55-4DF2-414F-9FDE-9D38183100A7-KM-238.52550007798908-IN"/>
	<route edges="ba8c6-1-re ba8c6-0-re 7ec78-0 7ec78-1" color="65,217,53" id="route_DFCF90F4-D92F-45DA-AD11-E4075AFBA8C6-KM-25-GEGEN-A2862EAF-F228-4EA4-A03E-5538B9F7EC78-KM-321.5762856547864-IN"/>
	<route edges="31377-1-re 31377-0-re 7ec78-0 7ec78-1" color="110,186,47" id="route_CA952F24-3338-4511-8404-C9B5AC631377-KM-25-GEGEN-A2862EAF-F228-4EA4-A03E-5538B9F7EC78-KM-321.5762856547864-IN"/>
	<route edges="2c5ad-1 2c5ad-2 010d7-0 010d7-1" color="65,92,62" id="route_3BCAC79D-AA8E-4DC6-8463-563CE1F2C5AD-KM-788.1457216628645-IN-B601AC02-BB99-41F4-9B56-EAA1896010D7-KM-169.7673894741766-IN"/>
	<route edges="2c5ad-1-re 2c5ad-0-re ba8c6-2-re ba8c6-1-re" color="249,61,203" id="route_3BCAC79D-AA8E-4DC6-8463-563CE1F2C5AD-KM-25-GEGEN-DFCF90F4-D92F-45DA-AD11-E4075AFBA8C6-KM-25-GEGEN"/>
	<route edges="100a7-1 100a7-2 f3b7d-0 edb1a-2-re edb1a-1-re" color="31,159,9" id="route_AF183D55-4DF2-414F-9FDE-9D38183100A7-KM-238.52550007798908-IN-18ED0E0C-5A0D-4D3E-95C3-3A10291EDB1A-KM-25-GEGEN"/>
	<route edges="100a7-1 100a7-2 f3b7d-0 6e68d-2-re 6e68d-1-re" color="4,192,101" id="route_AF183D55-4DF2-414F-9FDE-9D38183100A7-KM-238.52550007798908-IN-1A55D079-3975-48B5-83FC-A06EEF26E68D-KM-25-GEGEN"/>
	<route edges="100a7-1-re 100a7-0-re ba8c6-2-re ba8c6-1-re" color="91,32,46" id="route_AF183D55-4DF2-414F-9FDE-9D38183100A7-KM-25-GEGEN-DFCF90F4-D92F-45DA-AD11-E4075AFBA8C6-KM-25-GEGEN"/>
	<route edges="010d7-1 010d7-2 4d351-0 4d351-1" color="186,95,90" id="route_B601AC02-BB99-41F4-9B56-EAA1896010D7-KM-169.7673894741766-IN-CCA7A243-4912-497A-874B-4D5310E4D351-KM-684.7733628877847-IN"/>
	<route edges="010d7-1-re 010d7-0-re 2c5ad-2-re 2c5ad-1-re" color="224,203,73" id="route_B601AC02-BB99-41F4-9B56-EAA1896010D7-KM-25-GEGEN-3BCAC79D-AA8E-4DC6-8463-563CE1F2C5AD-KM-25-GEGEN"/>
	<route edges="a7738-1-re a7738-0-re 010d7-0 010d7-1" color="226,240,252" id="route_D6B8A0C4-DB0C-49B7-8269-8BC94D8A7738-KM-25-GEGEN-B601AC02-BB99-41F4-9B56-EAA1896010D7-KM-169.7673894741766-IN"/>
	<route edges="4d351-1 4d351-2 3ddad-0-re f2f9d-0 f2f9d-1" color="161,164,204" id="route_CCA7A243-4912-497A-874B-4D5310E4D351-KM-684.7733628877847-IN-EF9C3E2E-29AA-41A7-991C-B79B40EF2F9D-KM-1671.7895552905081-IN"/>
	<route edges="4d351-1 4d351-2 3ddad-0-re 3f165-0 3f165-1" color="108,153,240" id="route_CCA7A243-4912-497A-874B-4D5310E4D351-KM-684.7733628877847-IN-746C9143-7E6B-4978-A59D-B68ADB03F165-KM-1452.8979874733736-IN"/>
	<route edges="4d351-1 4d351-2 f86d0-0 f86d0-1" color="166,34,62" id="route_CCA7A243-4912-497A-874B-4D5310E4D351-KM-684.7733628877847-IN-73D55CFE-4406-4817-8D71-8332D87F86D0-KM-268.8995167296298-IN"/>
	<route edges="4d351-1-re 4d351-0-re 010d7-2-re 010d7-1-re" color="129,162,147" id="route_CCA7A243-4912-497A-874B-4D5310E4D351-KM-25-GEGEN-B601AC02-BB99-41F4-9B56-EAA1896010D7-KM-25-GEGEN"/>
	<route edges="53d67-1-re 53d67-0-re 4d351-0 4d351-1" color="96,31,189" id="route_0EC2788A-F248-479A-8833-7A6F22C53D67-KM-25-GEGEN-CCA7A243-4912-497A-874B-4D5310E4D351-KM-684.7733628877847-IN"/>
	<route edges="7f7bf-1 7f7bf-2 76c35-0 76c35-1" color="171,36,114" id="route_68F6E2D1-8404-41F3-850C-2CC8D327F7BF-KM-254.45431792963808-IN-79B28B19-DDB3-47E8-A524-258E6AF76C35-KM-1908.0650690078241-IN"/>
	<route edges="7f7bf-1-re 7f7bf-0-re dedc5-0 0636e-2-re 0636e-1-re" color="84,29,214" id="route_68F6E2D1-8404-41F3-850C-2CC8D327F7BF-KM-25-GEGEN-E599D8C6-C9D2-4EE1-B929-7D35F6C0636E-KM-25-GEGEN"/>
	<route edges="7f7bf-1-re 7f7bf-0-re dedc5-0 f2f9d-2-re f2f9d-1-re" color="122,211,114" id="route_68F6E2D1-8404-41F3-850C-2CC8D327F7BF-KM-25-GEGEN-EF9C3E2E-29AA-41A7-991C-B79B40EF2F9D-KM-25-GEGEN"/>
	<route edges="d8d2c-1 d8d2c-2 d8d2c-3" color="220,63,108" id="route_05B85D16-EB21-4F5A-9BF7-03C4EB8D8D2C-KM-1000-IN-05B85D16-EB21-4F5A-9BF7-03C4EB8D8D2C-KM-2000-IN"/>
	<route edges="d8d2c-3 d8d2c-4 d8d2c-5" color="64,68,88" id="route_05B85D16-EB21-4F5A-9BF7-03C4EB8D8D2C-KM-2000-IN-05B85D16-EB21-4F5A-9BF7-03C4EB8D8D2C-KM-3000-IN"/>
	<route edges="d8d2c-5 d8d2c-6 d8d2c-7" color="163,18,149" id="route_05B85D16-EB21-4F5A-9BF7-03C4EB8D8D2C-KM-3000-IN-05B85D16-EB21-4F5A-9BF7-03C4EB8D8D2C-KM-4000-IN"/>
	<route edges="d8d2c-7 d8d2c-8 d8d2c-9" color="209,211,203" id="route_05B85D16-EB21-4F5A-9BF7-03C4EB8D8D2C-KM-4000-IN-05B85D16-EB21-4F5A-9BF7-03C4EB8D8D2C-KM-5560.253303703657-IN"/>
	<route edges="d8d2c-9 d8d2c-10 a4223-5-re a4223-4-re" color="18,53,111" id="route_05B85D16-EB21-4F5A-9BF7-03C4EB8D8D2C-KM-5560.253303703657-IN-285D54DA-4228-4786-9EB6-F4ACBD3A4223-KM-1001-GEGEN"/>
	<route edges="d8d2c-9 d8d2c-10 8ca70-2-re 8ca70-1-re" color="222,112,156" id="route_05B85D16-EB21-4F5A-9BF7-03C4EB8D8D2C-KM-5560.253303703657-IN-A5DC36D3-1EF5-4F3B-A8C2-68B5A288CA70-KM-25-GEGEN"/>
	<route edges="d8d2c-9-re d8d2c-8-re d8d2c-7-re" color="17,50,172" id="route_05B85D16-EB21-4F5A-9BF7-03C4EB8D8D2C-KM-4000-GEGEN-05B85D16-EB21-4F5A-9BF7-03C4EB8D8D2C-KM-3000-GEGEN"/>
	<route edges="d8d2c-7-re d8d2c-6-re d8d2c-5-re" color="132,42,33" id="route_05B85D16-EB21-4F5A-9BF7-03C4EB8D8D2C-KM-3000-GEGEN-05B85D16-EB21-4F5A-9BF7-03C4EB8D8D2C-KM-2000-GEGEN"/>
	<route edges="d8d2c-5-re d8d2c-4-re d8d2c-3-re" color="137,76,175" id="route_05B85D16-EB21-4F5A-9BF7-03C4EB8D8D2C-KM-2000-GEGEN-05B85D16-EB21-4F5A-9BF7-03C4EB8D8D2C-KM-1000-GEGEN"/>
	<route edges="d8d2c-3-re d8d2c-2-re d8d2c-1-re" color="151,10,127" id="route_05B85D16-EB21-4F5A-9BF7-03C4EB8D8D2C-KM-1000-GEGEN-05B85D16-EB21-4F5A-9BF7-03C4EB8D8D2C-KM-25-GEGEN"/>
	<route edges="d8d2c-1-re d8d2c-0-re dedc5-0 0636e-2-re 0636e-1-re" color="8,163,135" id="route_05B85D16-EB21-4F5A-9BF7-03C4EB8D8D2C-KM-25-GEGEN-E599D8C6-C9D2-4EE1-B929-7D35F6C0636E-KM-25-GEGEN"/>
	<route edges="d8d2c-1-re d8d2c-0-re dedc5-0 f2f9d-2-re f2f9d-1-re" color="141,251,51" id="route_05B85D16-EB21-4F5A-9BF7-03C4EB8D8D2C-KM-25-GEGEN-EF9C3E2E-29AA-41A7-991C-B79B40EF2F9D-KM-25-GEGEN"/>
	<route edges="85f43-1 85f43-2 89cf4-0-re e6d1c-2-re e6d1c-1-re" color="129,254,63" id="route_9FE2315A-870C-4F44-8DCA-429953985F43-KM-463.81731618508263-IN-362BCB15-7331-44EF-B160-DA6026AE6D1C-KM-25-GEGEN"/>
	<route edges="85f43-1 85f43-2 89cf4-0-re 3f165-2-re 3f165-1-re" color="219,158,107" id="route_9FE2315A-870C-4F44-8DCA-429953985F43-KM-463.81731618508263-IN-746C9143-7E6B-4978-A59D-B68ADB03F165-KM-25-GEGEN"/>
	<route edges="85f43-1-re 85f43-0-re 76c35-0 76c35-1" color="7,207,120" id="route_9FE2315A-870C-4F44-8DCA-429953985F43-KM-25-GEGEN-79B28B19-DDB3-47E8-A524-258E6AF76C35-KM-1908.0650690078241-IN"/>
	<route edges="76c35-1 76c35-2 37e5f-0 37e5f-1" color="129,230,212" id="route_79B28B19-DDB3-47E8-A524-258E6AF76C35-KM-1908.0650690078241-IN-A23E5B57-B1B3-4692-99F8-5E2917E37E5F-KM-164.87032984724672-IN"/>
	<route edges="76c35-1 76c35-2 734fd-0 0cc51-0 ff2e6-0-re c25f2-0 41e4a-0 41e4a-1" color="201,230,38" id="route_79B28B19-DDB3-47E8-A524-258E6AF76C35-KM-1908.0650690078241-IN-E25B484E-9380-48F0-B11A-0B173E141E4A-KM-181.66400492600528-IN"/>
	<route edges="76c35-1 76c35-2 734fd-0 0cc51-0 ff2e6-0-re c25f2-0 2db34-0 2db34-1" color="14,78,21" id="route_79B28B19-DDB3-47E8-A524-258E6AF76C35-KM-1908.0650690078241-IN-E6D23CE4-73EE-451B-AD61-D50D91F2DB34-KM-340.8087986779541-IN"/>
	<route edges="76c35-1 76c35-2 734fd-0 0cc51-0 f493e-0 f493e-1" color="171,153,238" id="route_79B28B19-DDB3-47E8-A524-258E6AF76C35-KM-1908.0650690078241-IN-C94D64BF-B77D-49BE-A6D4-FCCB19AF493E-KM-631.7357322698663-IN"/>
	<route edges="76c35-1-re 76c35-0-re 85f43-0 85f43-1" color="51,141,124" id="route_79B28B19-DDB3-47E8-A524-258E6AF76C35-KM-25-GEGEN-9FE2315A-870C-4F44-8DCA-429953985F43-KM-463.81731618508263-IN"/>
	<route edges="76c35-1-re 76c35-0-re 7f7bf-2-re 7f7bf-1-re" color="198,249,187" id="route_79B28B19-DDB3-47E8-A524-258E6AF76C35-KM-25-GEGEN-68F6E2D1-8404-41F3-850C-2CC8D327F7BF-KM-25-GEGEN"/>
	<route edges="4d42b-1 4d42b-2 4d42b-3" color="114,136,51" id="route_62B1A719-72E2-4818-85D7-1D0AD174D42B-KM-1000-IN-62B1A719-72E2-4818-85D7-1D0AD174D42B-KM-2968.0134948223827-IN"/>
	<route edges="4d42b-3 4d42b-4 c5d25-0 c5d25-1" color="8,152,176" id="route_62B1A719-72E2-4818-85D7-1D0AD174D42B-KM-2968.0134948223827-IN-A32EA017-A35D-42B0-96F1-324880DC5D25-KM-1453.541904487744-IN"/>
	<route edges="4d42b-3-re 4d42b-2-re 4d42b-1-re" color="89,47,137" id="route_62B1A719-72E2-4818-85D7-1D0AD174D42B-KM-1000-GEGEN-62B1A719-72E2-4818-85D7-1D0AD174D42B-KM-25-GEGEN"/>
	<route edges="4d42b-1-re 4d42b-0-re a972d-0 2db34-2-re 2db34-1-re" color="21,160,8" id="route_62B1A719-72E2-4818-85D7-1D0AD174D42B-KM-25-GEGEN-E6D23CE4-73EE-451B-AD61-D50D91F2DB34-KM-25-GEGEN"/>
	<route edges="4d42b-1-re 4d42b-0-re a972d-0 f22c2-0 b1de8-0-re 7dfe5-0 41e4a-2-re 41e4a-1-re" color="45,45,172" id="route_62B1A719-72E2-4818-85D7-1D0AD174D42B-KM-25-GEGEN-E25B484E-9380-48F0-B11A-0B173E141E4A-KM-25-GEGEN"/>
	<route edges="4d42b-1-re 4d42b-0-re a972d-0 f22c2-0 b1de8-0-re 7dfe5-0 e77d6-0 5d3c9-0 5d3c9-1" color="1,143,137" id="route_62B1A719-72E2-4818-85D7-1D0AD174D42B-KM-25-GEGEN-397524A2-E75E-44E3-883C-5CBDADE5D3C9-KM-893.3775715190525-IN"/>
	<route edges="4d42b-1-re 4d42b-0-re a972d-0 f22c2-0 b1de8-0-re 7dfe5-0 e77d6-0 12395-0 64edd-2-re 64edd-1-re" color="229,135,124" id="route_62B1A719-72E2-4818-85D7-1D0AD174D42B-KM-25-GEGEN-1F14BB00-5C11-4360-B645-312D8BE64EDD-KM-25-GEGEN"/>
	<route edges="4d42b-1-re 4d42b-0-re a972d-0 f22c2-0 b1de8-0-re 7dfe5-0 e77d6-0 12395-0 0bd47-0 de7ba-2-re de7ba-1-re" color="40,243,36" id="route_62B1A719-72E2-4818-85D7-1D0AD174D42B-KM-25-GEGEN-90583093-17B9-48FC-B43D-01E0B32DE7BA-KM-25-GEGEN"/>
	<route edges="cc733-1 cc733-2 7c68e-2-re 7c68e-1-re" color="126,70,55" id="route_87970BC9-B504-4FC8-8F0C-415BD6ECC733-KM-96.47358751756049-IN-45746108-1A0C-4BE8-BDA9-A9E3B3A7C68E-KM-25-GEGEN"/>
	<route edges="cc733-1 cc733-2 b9c58-0 b9c58-1" color="225,13,18" id="route_87970BC9-B504-4FC8-8F0C-415BD6ECC733-KM-96.47358751756049-IN-16218983-B116-4F08-9E73-CCE976EB9C58-KM-914.6100386400316-IN"/>
	<route edges="cc733-1-re cc733-0-re d9ad5-0 d9ad5-1" color="192,42,175" id="route_87970BC9-B504-4FC8-8F0C-415BD6ECC733-KM-25-GEGEN-A6B41C3D-1FAD-4E31-AD85-FCAC33BD9AD5-KM-196.352947606197-IN"/>
	<route edges="d9ad5-1 d9ad5-2 3317c-2-re 3317c-1-re" color="9,177,41" id="route_A6B41C3D-1FAD-4E31-AD85-FCAC33BD9AD5-KM-196.352947606197-IN-2F2DE7D1-52BC-4AC2-9578-3A156093317C-KM-25-GEGEN"/>
	<route edges="d9ad5-1 d9ad5-2 da25e-2-re da25e-1-re" color="3,228,207" id="route_A6B41C3D-1FAD-4E31-AD85-FCAC33BD9AD5-KM-196.352947606197-IN-AB37E43B-3C05-462D-9A00-56C2116DA25E-KM-25-GEGEN"/>
	<route edges="d9ad5-1-re d9ad5-0-re cc733-0 cc733-1" color="146,158,179" id="route_A6B41C3D-1FAD-4E31-AD85-FCAC33BD9AD5-KM-25-GEGEN-87970BC9-B504-4FC8-8F0C-415BD6ECC733-KM-96.47358751756049-IN"/>
	<route edges="d9ad5-1-re d9ad5-0-re ddbfc-0 2132b-0 7aeb4-0 7aeb4-1" color="114,94,30" id="route_A6B41C3D-1FAD-4E31-AD85-FCAC33BD9AD5-KM-25-GEGEN-D0BB5BD2-040A-4A97-BF90-6ADE29C7AEB4-KM-103.04561740430805-IN"/>
	<route edges="d9ad5-1-re d9ad5-0-re ddbfc-0 2132b-0 4e574-2-re 4e574-1-re" color="152,240,14" id="route_A6B41C3D-1FAD-4E31-AD85-FCAC33BD9AD5-KM-25-GEGEN-61F3945D-5FA7-4AEE-8EA2-D2D98BE4E574-KM-25-GEGEN"/>
	<route edges="d9ad5-1-re d9ad5-0-re ddbfc-0 d031a-0 d031a-1" color="227,253,194" id="route_A6B41C3D-1FAD-4E31-AD85-FCAC33BD9AD5-KM-25-GEGEN-66EAA5D3-4EBF-49E6-88F5-4998952D031A-KM-1077.9134160895494-IN"/>
	<route edges="d031a-1 d031a-2 48dbb-0 233a9-0 ad703-0 ad703-1" color="153,168,81" id="route_66EAA5D3-4EBF-49E6-88F5-4998952D031A-KM-1077.9134160895494-IN-FC7423B4-A0A9-4582-9CD9-AC44D7EAD703-KM-455.0663329602517-IN"/>
	<route edges="d031a-1-re d031a-0-re ddbfc-0-re d9ad5-0 d9ad5-1" color="146,9,220" id="route_66EAA5D3-4EBF-49E6-88F5-4998952D031A-KM-25-GEGEN-A6B41C3D-1FAD-4E31-AD85-FCAC33BD9AD5-KM-196.352947606197-IN"/>
	<route edges="4e574-1 4e574-2 2132b-0-re ddbfc-0-re d9ad5-0 d9ad5-1" color="93,43,153" id="route_61F3945D-5FA7-4AEE-8EA2-D2D98BE4E574-KM-1049.2555641663412-IN-A6B41C3D-1FAD-4E31-AD85-FCAC33BD9AD5-KM-196.352947606197-IN"/>
	<route edges="4e574-1-re 4e574-0-re 233a9-0 ad703-0 ad703-1" color="186,71,106" id="route_61F3945D-5FA7-4AEE-8EA2-D2D98BE4E574-KM-25-GEGEN-FC7423B4-A0A9-4582-9CD9-AC44D7EAD703-KM-455.0663329602517-IN"/>
	<route edges="ad703-1 ad703-2 745fb-0 745fb-1" color="183,149,173" id="route_FC7423B4-A0A9-4582-9CD9-AC44D7EAD703-KM-455.0663329602517-IN-752C1B1C-9D32-4506-A542-26AACCE745FB-KM-90.49227411094549-IN"/>
	<route edges="ad703-1 ad703-2 6fa32-0 6fa32-1" color="96,229,154" id="route_FC7423B4-A0A9-4582-9CD9-AC44D7EAD703-KM-455.0663329602517-IN-BE2F1D1A-F3C5-4365-81DB-D767C906FA32-KM-79.28485462572691-IN"/>
	<route edges="ad703-1-re ad703-0-re 233a9-0-re 48dbb-0-re e6b6e-0 7a4a0-2-re 7a4a0-1-re" color="250,231,15" id="route_FC7423B4-A0A9-4582-9CD9-AC44D7EAD703-KM-25-GEGEN-16368CFD-531E-4CAE-8015-F687C2F7A4A0-KM-25-GEGEN"/>
	<route edges="ad703-1-re ad703-0-re 233a9-0-re 48dbb-0-re d031a-2-re d031a-1-re" color="32,81,167" id="route_FC7423B4-A0A9-4582-9CD9-AC44D7EAD703-KM-25-GEGEN-66EAA5D3-4EBF-49E6-88F5-4998952D031A-KM-25-GEGEN"/>
	<route edges="ad703-1-re ad703-0-re 233a9-0-re 4e574-0 4e574-1" color="48,60,152" id="route_FC7423B4-A0A9-4582-9CD9-AC44D7EAD703-KM-25-GEGEN-61F3945D-5FA7-4AEE-8EA2-D2D98BE4E574-KM-1049.2555641663412-IN"/>
	<route edges="ad703-1-re ad703-0-re 60023-0 b6945-2-re b6945-1-re" color="133,206,255" id="route_FC7423B4-A0A9-4582-9CD9-AC44D7EAD703-KM-25-GEGEN-1D0EB1E6-F389-46C9-9AC1-9ECE2B7B6945-KM-25-GEGEN"/>
	<route edges="ad703-1-re ad703-0-re 60023-0 72c33-0 d98bc-2-re d98bc-1-re" color="113,184,97" id="route_FC7423B4-A0A9-4582-9CD9-AC44D7EAD703-KM-25-GEGEN-AD421A05-54BF-44D7-97EA-698DB31D98BC-KM-25-GEGEN"/>
	<route edges="ad703-1-re ad703-0-re 60023-0 72c33-0 a2dea-0-re 1510e-0 b9c58-2-re b9c58-1-re" color="52,205,183" id="route_FC7423B4-A0A9-4582-9CD9-AC44D7EAD703-KM-25-GEGEN-16218983-B116-4F08-9E73-CCE976EB9C58-KM-25-GEGEN"/>
	<route edges="ad703-1-re ad703-0-re 60023-0 72c33-0 a2dea-0-re 1510e-0 c7734-2-re c7734-1-re" color="130,104,202" id="route_FC7423B4-A0A9-4582-9CD9-AC44D7EAD703-KM-25-GEGEN-7923D3FA-0AB5-4C37-9449-9863EF0C7734-KM-25-GEGEN"/>
	<route edges="6fa32-1 6fa32-2 8beee-0 8beee-1" color="71,229,135" id="route_BE2F1D1A-F3C5-4365-81DB-D767C906FA32-KM-79.28485462572691-IN-EE61706E-1211-40C8-89B1-5F6E1E88BEEE-KM-984.5542787261779-IN"/>
	<route edges="6fa32-1-re 6fa32-0-re ad703-2-re ad703-1-re" color="103,118,235" id="route_BE2F1D1A-F3C5-4365-81DB-D767C906FA32-KM-25-GEGEN-FC7423B4-A0A9-4582-9CD9-AC44D7EAD703-KM-25-GEGEN"/>
	<route edges="745fb-1 745fb-2 a3f82-0 a3f82-1" color="135,15,222" id="route_752C1B1C-9D32-4506-A542-26AACCE745FB-KM-90.49227411094549-IN-A73710E6-4CE7-41EE-9DBF-7BC5C84A3F82-KM-973.5630285209269-IN"/>
	<route edges="745fb-1-re 745fb-0-re ad703-2-re ad703-1-re" color="129,87,54" id="route_752C1B1C-9D32-4506-A542-26AACCE745FB-KM-25-GEGEN-FC7423B4-A0A9-4582-9CD9-AC44D7EAD703-KM-25-GEGEN"/>
	<route edges="8beee-1 8beee-2 82163-0 82163-1" color="140,54,129" id="route_EE61706E-1211-40C8-89B1-5F6E1E88BEEE-KM-984.5542787261779-IN-613ABC40-1BE6-48DB-BF77-A0D1B6582163-KM-81.24463641442591-IN"/>
	<route edges="8beee-1-re 8beee-0-re 843ba-0 843ba-1" color="61,246,91" id="route_EE61706E-1211-40C8-89B1-5F6E1E88BEEE-KM-25-GEGEN-1399D43C-170B-4A9B-AFCA-20CC256843BA-KM-101.34410270980774-IN"/>
	<route edges="8beee-1-re 8beee-0-re 6fa32-2-re 6fa32-1-re" color="107,128,124" id="route_EE61706E-1211-40C8-89B1-5F6E1E88BEEE-KM-25-GEGEN-BE2F1D1A-F3C5-4365-81DB-D767C906FA32-KM-25-GEGEN"/>
	<route edges="843ba-1 843ba-2 878df-0 878df-1" color="4,126,75" id="route_1399D43C-170B-4A9B-AFCA-20CC256843BA-KM-101.34410270980774-IN-F048288A-F1F4-438C-9622-9C55152878DF-KM-173.08552154511705-IN"/>
	<route edges="843ba-1-re 843ba-0-re 8beee-0 8beee-1" color="50,175,191" id="route_1399D43C-170B-4A9B-AFCA-20CC256843BA-KM-25-GEGEN-EE61706E-1211-40C8-89B1-5F6E1E88BEEE-KM-984.5542787261779-IN"/>
	<route edges="37340-0 37340-1 37340-2" color="241,168,148" id="route_FEC59CFC-4CE1-490F-AE7E-741CBA237340-KM-1-IN-FEC59CFC-4CE1-490F-AE7E-741CBA237340-KM-1246.872029481161-IN"/>
	<route edges="37340-2 37340-3 b4ba9-0 b4ba9-1" color="229,75,221" id="route_FEC59CFC-4CE1-490F-AE7E-741CBA237340-KM-1246.872029481161-IN-795BB023-8CB3-4BDB-B205-F770376B4BA9-KM-195.21324611100448-IN"/>
	<route edges="6cb5a-1 6cb5a-2 5cbd6-0 a4491-0 a4491-1" color="173,183,179" id="route_3A6EE0AE-156C-4D61-A4BA-5A6E6646CB5A-KM-1615.0764173282626-IN-5B120B68-5985-422D-A8A4-19FE648A4491-KM-136.72691529462978-IN"/>
	<route edges="6cb5a-1 6cb5a-2 5cbd6-0 faac1-0 faac1-1" color="71,204,63" id="route_3A6EE0AE-156C-4D61-A4BA-5A6E6646CB5A-KM-1615.0764173282626-IN-0C365B6B-687D-4E65-9303-5552F6DFAAC1-KM-937.1466831358305-IN"/>
	<route edges="6cb5a-1-re 6cb5a-0-re 9177f-0 b6aa6-2-re b6aa6-1-re" color="217,3,168" id="route_3A6EE0AE-156C-4D61-A4BA-5A6E6646CB5A-KM-25-GEGEN-B2EB3702-BD75-46C3-9817-BCBE66AB6AA6-KM-25-GEGEN"/>
	<route edges="6cb5a-1-re 6cb5a-0-re 9177f-0 0c6e7-0-re 3d2b2-2-re 3d2b2-1-re" color="131,162,55" id="route_3A6EE0AE-156C-4D61-A4BA-5A6E6646CB5A-KM-25-GEGEN-8AADF4D4-5F00-4C5C-8745-AC54A833D2B2-KM-25-GEGEN"/>
	<route edges="cc8ca-1 cc8ca-2 cc8ca-3" color="181,255,39" id="route_EB6CE101-AA7F-4091-A19C-E1314A4CC8CA-KM-1000-IN-EB6CE101-AA7F-4091-A19C-E1314A4CC8CA-KM-2000-IN"/>
	<route edges="cc8ca-3 cc8ca-4 cc8ca-5" color="78,110,220" id="route_EB6CE101-AA7F-4091-A19C-E1314A4CC8CA-KM-2000-IN-EB6CE101-AA7F-4091-A19C-E1314A4CC8CA-KM-3170.0135601901507-IN"/>
	<route edges="cc8ca-5 cc8ca-6 e1837-0 e1837-1" color="194,45,186" id="route_EB6CE101-AA7F-4091-A19C-E1314A4CC8CA-KM-3170.0135601901507-IN-ADE90882-0A92-46E9-82F5-4DEBE46E1837-KM-1145.0075044737318-IN"/>
	<route edges="cc8ca-5 cc8ca-6 37cc8-0 37cc8-1" color="41,149,177" id="route_EB6CE101-AA7F-4091-A19C-E1314A4CC8CA-KM-3170.0135601901507-IN-1D9A89BA-77F1-43F3-912E-010540537CC8-KM-199.43697602843812-IN"/>
	<route edges="cc8ca-5-re cc8ca-4-re cc8ca-3-re" color="66,184,158" id="route_EB6CE101-AA7F-4091-A19C-E1314A4CC8CA-KM-2000-GEGEN-EB6CE101-AA7F-4091-A19C-E1314A4CC8CA-KM-1000-GEGEN"/>
	<route edges="cc8ca-3-re cc8ca-2-re cc8ca-1-re" color="187,74,28" id="route_EB6CE101-AA7F-4091-A19C-E1314A4CC8CA-KM-1000-GEGEN-EB6CE101-AA7F-4091-A19C-E1314A4CC8CA-KM-25-GEGEN"/>
	<route edges="cc8ca-1-re cc8ca-0-re 9177f-0 b6aa6-2-re b6aa6-1-re" color="110,237,172" id="route_EB6CE101-AA7F-4091-A19C-E1314A4CC8CA-KM-25-GEGEN-B2EB3702-BD75-46C3-9817-BCBE66AB6AA6-KM-25-GEGEN"/>
	<route edges="cc8ca-1-re cc8ca-0-re 9177f-0 0c6e7-0-re 3d2b2-2-re 3d2b2-1-re" color="4,48,145" id="route_EB6CE101-AA7F-4091-A19C-E1314A4CC8CA-KM-25-GEGEN-8AADF4D4-5F00-4C5C-8745-AC54A833D2B2-KM-25-GEGEN"/>
	<route edges="e0848-1 e0848-2 11177-0 11177-1" color="144,150,227" id="route_5A7F0DD1-756C-4083-AA3A-A1FC0FAE0848-KM-152.73211692197054-IN-D4D26720-7F02-47E0-8836-C5970C311177-KM-1000-IN"/>
	<route edges="e0848-1-re e0848-0-re 5cbd6-0 a4491-0 a4491-1" color="87,121,111" id="route_5A7F0DD1-756C-4083-AA3A-A1FC0FAE0848-KM-25-GEGEN-5B120B68-5985-422D-A8A4-19FE648A4491-KM-136.72691529462978-IN"/>
	<route edges="e0848-1-re e0848-0-re 5cbd6-0 faac1-0 faac1-1" color="177,133,155" id="route_5A7F0DD1-756C-4083-AA3A-A1FC0FAE0848-KM-25-GEGEN-0C365B6B-687D-4E65-9303-5552F6DFAAC1-KM-937.1466831358305-IN"/>
	<route edges="faac1-1 faac1-2 f3b7d-0 edb1a-2-re edb1a-1-re" color="1,135,196" id="route_0C365B6B-687D-4E65-9303-5552F6DFAAC1-KM-937.1466831358305-IN-18ED0E0C-5A0D-4D3E-95C3-3A10291EDB1A-KM-25-GEGEN"/>
	<route edges="faac1-1 faac1-2 f3b7d-0 6e68d-2-re 6e68d-1-re" color="123,125,70" id="route_0C365B6B-687D-4E65-9303-5552F6DFAAC1-KM-937.1466831358305-IN-1A55D079-3975-48B5-83FC-A06EEF26E68D-KM-25-GEGEN"/>
	<route edges="faac1-1-re faac1-0-re 5cbd6-0-re 6cb5a-2-re 6cb5a-1-re" color="28,99,248" id="route_0C365B6B-687D-4E65-9303-5552F6DFAAC1-KM-25-GEGEN-3A6EE0AE-156C-4D61-A4BA-5A6E6646CB5A-KM-25-GEGEN"/>
	<route edges="faac1-1-re faac1-0-re 5cbd6-0-re e0848-0 e0848-1" color="180,84,157" id="route_0C365B6B-687D-4E65-9303-5552F6DFAAC1-KM-25-GEGEN-5A7F0DD1-756C-4083-AA3A-A1FC0FAE0848-KM-152.73211692197054-IN"/>
	<route edges="a4491-1 a4491-2 7ec78-2-re 7ec78-1-re" color="50,33,37" id="route_5B120B68-5985-422D-A8A4-19FE648A4491-KM-136.72691529462978-IN-A2862EAF-F228-4EA4-A03E-5538B9F7EC78-KM-25-GEGEN"/>
	<route edges="a4491-1-re a4491-0-re 5cbd6-0-re 6cb5a-2-re 6cb5a-1-re" color="17,254,152" id="route_5B120B68-5985-422D-A8A4-19FE648A4491-KM-25-GEGEN-3A6EE0AE-156C-4D61-A4BA-5A6E6646CB5A-KM-25-GEGEN"/>
	<route edges="a4491-1-re a4491-0-re 5cbd6-0-re e0848-0 e0848-1" color="225,210,215" id="route_5B120B68-5985-422D-A8A4-19FE648A4491-KM-25-GEGEN-5A7F0DD1-756C-4083-AA3A-A1FC0FAE0848-KM-152.73211692197054-IN"/>
	<route edges="7a94b-1 7a94b-2 467b0-4-re 467b0-3-re" color="211,33,245" id="route_62C72090-8981-4411-967F-AFF96B37A94B-KM-848.6990357234663-IN-AEE64463-43BC-4538-8EE2-E6B1B7F467B0-KM-1000-GEGEN"/>
	<route edges="7a94b-1-re 7a94b-0-re 0f11f-0 0f11f-1" color="188,209,75" id="route_62C72090-8981-4411-967F-AFF96B37A94B-KM-25-GEGEN-C070DBEF-75FA-4CAF-99CE-5169B570F11F-KM-1000-IN"/>
	<route edges="0f11f-1 0f11f-2 0f11f-3" color="1,29,232" id="route_C070DBEF-75FA-4CAF-99CE-5169B570F11F-KM-1000-IN-C070DBEF-75FA-4CAF-99CE-5169B570F11F-KM-2000-IN"/>
	<route edges="0f11f-3 0f11f-4 0f11f-5" color="223,173,80" id="route_C070DBEF-75FA-4CAF-99CE-5169B570F11F-KM-2000-IN-C070DBEF-75FA-4CAF-99CE-5169B570F11F-KM-3000-IN"/>
	<route edges="0f11f-5 0f11f-6 0f11f-7" color="217,61,39" id="route_C070DBEF-75FA-4CAF-99CE-5169B570F11F-KM-3000-IN-C070DBEF-75FA-4CAF-99CE-5169B570F11F-KM-4000-IN"/>
	<route edges="0f11f-7 0f11f-8 0f11f-9" color="121,97,58" id="route_C070DBEF-75FA-4CAF-99CE-5169B570F11F-KM-4000-IN-C070DBEF-75FA-4CAF-99CE-5169B570F11F-KM-5000-IN"/>
	<route edges="0f11f-9 0f11f-10 0f11f-11" color="122,192,126" id="route_C070DBEF-75FA-4CAF-99CE-5169B570F11F-KM-5000-IN-C070DBEF-75FA-4CAF-99CE-5169B570F11F-KM-6000-IN"/>
	<route edges="0f11f-11 0f11f-12 0f11f-13" color="75,29,5" id="route_C070DBEF-75FA-4CAF-99CE-5169B570F11F-KM-6000-IN-C070DBEF-75FA-4CAF-99CE-5169B570F11F-KM-7625.423054083232-IN"/>
	<route edges="0f11f-13 0f11f-14 393fe-0 393fe-1" color="229,250,180" id="route_C070DBEF-75FA-4CAF-99CE-5169B570F11F-KM-7625.423054083232-IN-2EF11331-1C4F-4087-ACAE-17DAE43393FE-KM-86.42029216853058-IN"/>
	<route edges="0f11f-13-re 0f11f-12-re 0f11f-11-re" color="52,142,17" id="route_C070DBEF-75FA-4CAF-99CE-5169B570F11F-KM-6000-GEGEN-C070DBEF-75FA-4CAF-99CE-5169B570F11F-KM-5000-GEGEN"/>
	<route edges="0f11f-11-re 0f11f-10-re 0f11f-9-re" color="6,166,137" id="route_C070DBEF-75FA-4CAF-99CE-5169B570F11F-KM-5000-GEGEN-C070DBEF-75FA-4CAF-99CE-5169B570F11F-KM-4000-GEGEN"/>
	<route edges="0f11f-9-re 0f11f-8-re 0f11f-7-re" color="2,234,82" id="route_C070DBEF-75FA-4CAF-99CE-5169B570F11F-KM-4000-GEGEN-C070DBEF-75FA-4CAF-99CE-5169B570F11F-KM-3000-GEGEN"/>
	<route edges="0f11f-7-re 0f11f-6-re 0f11f-5-re" color="172,82,191" id="route_C070DBEF-75FA-4CAF-99CE-5169B570F11F-KM-3000-GEGEN-C070DBEF-75FA-4CAF-99CE-5169B570F11F-KM-2000-GEGEN"/>
	<route edges="0f11f-5-re 0f11f-4-re 0f11f-3-re" color="94,247,120" id="route_C070DBEF-75FA-4CAF-99CE-5169B570F11F-KM-2000-GEGEN-C070DBEF-75FA-4CAF-99CE-5169B570F11F-KM-1000-GEGEN"/>
	<route edges="0f11f-3-re 0f11f-2-re 0f11f-1-re" color="240,101,103" id="route_C070DBEF-75FA-4CAF-99CE-5169B570F11F-KM-1000-GEGEN-C070DBEF-75FA-4CAF-99CE-5169B570F11F-KM-25-GEGEN"/>
	<route edges="0f11f-1-re 0f11f-0-re 5ade1-0 5ade1-1" color="253,112,220" id="route_C070DBEF-75FA-4CAF-99CE-5169B570F11F-KM-25-GEGEN-8B2FB3E8-D740-4C25-A5E0-1A1CD8A5ADE1-KM-127.01052255433262-IN"/>
	<route edges="0f11f-1-re 0f11f-0-re 7a94b-0 7a94b-1" color="223,154,172" id="route_C070DBEF-75FA-4CAF-99CE-5169B570F11F-KM-25-GEGEN-62C72090-8981-4411-967F-AFF96B37A94B-KM-848.6990357234663-IN"/>
	<route edges="5ade1-1 5ade1-2 b4ba9-2-re b4ba9-1-re" color="88,178,109" id="route_8B2FB3E8-D740-4C25-A5E0-1A1CD8A5ADE1-KM-127.01052255433262-IN-795BB023-8CB3-4BDB-B205-F770376B4BA9-KM-25-GEGEN"/>
	<route edges="5ade1-1-re 5ade1-0-re 0f11f-0 0f11f-1" color="168,198,251" id="route_8B2FB3E8-D740-4C25-A5E0-1A1CD8A5ADE1-KM-25-GEGEN-C070DBEF-75FA-4CAF-99CE-5169B570F11F-KM-1000-IN"/>
	<route edges="37e5f-1 37e5f-2 c25f2-0 41e4a-0 41e4a-1" color="80,210,99" id="route_A23E5B57-B1B3-4692-99F8-5E2917E37E5F-KM-164.87032984724672-IN-E25B484E-9380-48F0-B11A-0B173E141E4A-KM-181.66400492600528-IN"/>
	<route edges="37e5f-1 37e5f-2 c25f2-0 2db34-0 2db34-1" color="152,252,173" id="route_A23E5B57-B1B3-4692-99F8-5E2917E37E5F-KM-164.87032984724672-IN-E6D23CE4-73EE-451B-AD61-D50D91F2DB34-KM-340.8087986779541-IN"/>
	<route edges="37e5f-1-re 37e5f-0-re 76c35-2-re 76c35-1-re" color="104,197,203" id="route_A23E5B57-B1B3-4692-99F8-5E2917E37E5F-KM-25-GEGEN-79B28B19-DDB3-47E8-A524-258E6AF76C35-KM-25-GEGEN"/>
	<route edges="2db34-1 2db34-2 a972d-0-re 4d42b-0 4d42b-1" color="137,228,170" id="route_E6D23CE4-73EE-451B-AD61-D50D91F2DB34-KM-340.8087986779541-IN-62B1A719-72E2-4818-85D7-1D0AD174D42B-KM-1000-IN"/>
	<route edges="2db34-1 2db34-2 a972d-0-re 42dd6-0 3fc7b-0 3fc7b-1" color="203,90,220" id="route_E6D23CE4-73EE-451B-AD61-D50D91F2DB34-KM-340.8087986779541-IN-62369B16-0905-4768-9240-48DA7753FC7B-KM-1000-IN"/>
	<route edges="2db34-1-re 2db34-0-re c25f2-0-re ff2e6-0 0cc51-0-re 0cb00-2-re 0cb00-1-re" color="236,101,87" id="route_E6D23CE4-73EE-451B-AD61-D50D91F2DB34-KM-25-GEGEN-745BAF8A-AD13-46A7-8036-34C96F10CB00-KM-25-GEGEN"/>
	<route edges="2db34-1-re 2db34-0-re c25f2-0-re ff2e6-0 0cc51-0-re 734fd-0-re 76c35-2-re 76c35-1-re" color="7,234,126" id="route_E6D23CE4-73EE-451B-AD61-D50D91F2DB34-KM-25-GEGEN-79B28B19-DDB3-47E8-A524-258E6AF76C35-KM-25-GEGEN"/>
	<route edges="2db34-1-re 2db34-0-re c25f2-0-re 37e5f-2-re 37e5f-1-re" color="74,29,230" id="route_E6D23CE4-73EE-451B-AD61-D50D91F2DB34-KM-25-GEGEN-A23E5B57-B1B3-4692-99F8-5E2917E37E5F-KM-25-GEGEN"/>
	<route edges="41e4a-1 41e4a-2 7dfe5-0-re a2b82-2-re a2b82-1-re" color="53,101,182" id="route_E25B484E-9380-48F0-B11A-0B173E141E4A-KM-181.66400492600528-IN-1D5345A0-84D0-4A54-AFE1-D711147A2B82-KM-25-GEGEN"/>
	<route edges="41e4a-1 41e4a-2 7dfe5-0-re b1de8-0 461ea-4-re 461ea-3-re" color="151,41,201" id="route_E25B484E-9380-48F0-B11A-0B173E141E4A-KM-181.66400492600528-IN-FF79EA02-7083-40F1-B044-F69D2E5461EA-KM-1000-GEGEN"/>
	<route edges="41e4a-1 41e4a-2 7dfe5-0-re b1de8-0 f22c2-0-re a972d-0-re 4d42b-0 4d42b-1" color="214,55,162" id="route_E25B484E-9380-48F0-B11A-0B173E141E4A-KM-181.66400492600528-IN-62B1A719-72E2-4818-85D7-1D0AD174D42B-KM-1000-IN"/>
	<route edges="41e4a-1 41e4a-2 7dfe5-0-re b1de8-0 f22c2-0-re a972d-0-re 42dd6-0 3fc7b-0 3fc7b-1" color="237,41,108" id="route_E25B484E-9380-48F0-B11A-0B173E141E4A-KM-181.66400492600528-IN-62369B16-0905-4768-9240-48DA7753FC7B-KM-1000-IN"/>
	<route edges="41e4a-1-re 41e4a-0-re c25f2-0-re ff2e6-0 0cc51-0-re 0cb00-2-re 0cb00-1-re" color="50,171,125" id="route_E25B484E-9380-48F0-B11A-0B173E141E4A-KM-25-GEGEN-745BAF8A-AD13-46A7-8036-34C96F10CB00-KM-25-GEGEN"/>
	<route edges="41e4a-1-re 41e4a-0-re c25f2-0-re ff2e6-0 0cc51-0-re 734fd-0-re 76c35-2-re 76c35-1-re" color="73,142,201" id="route_E25B484E-9380-48F0-B11A-0B173E141E4A-KM-25-GEGEN-79B28B19-DDB3-47E8-A524-258E6AF76C35-KM-25-GEGEN"/>
	<route edges="41e4a-1-re 41e4a-0-re c25f2-0-re 37e5f-2-re 37e5f-1-re" color="254,128,13" id="route_E25B484E-9380-48F0-B11A-0B173E141E4A-KM-25-GEGEN-A23E5B57-B1B3-4692-99F8-5E2917E37E5F-KM-25-GEGEN"/>
	<route edges="393fe-1 393fe-2 26189-2-re 26189-1-re" color="64,158,254" id="route_2EF11331-1C4F-4087-ACAE-17DAE43393FE-KM-86.42029216853058-IN-99C254DE-6FB7-427B-9880-B55705E26189-KM-25-GEGEN"/>
	<route edges="393fe-1 393fe-2 3eb72-0-re c5d25-0 c5d25-1" color="175,2,39" id="route_2EF11331-1C4F-4087-ACAE-17DAE43393FE-KM-86.42029216853058-IN-A32EA017-A35D-42B0-96F1-324880DC5D25-KM-1453.541904487744-IN"/>
	<route edges="393fe-1-re 393fe-0-re 461ea-0 461ea-1" color="109,244,182" id="route_2EF11331-1C4F-4087-ACAE-17DAE43393FE-KM-25-GEGEN-FF79EA02-7083-40F1-B044-F69D2E5461EA-KM-1000-IN"/>
	<route edges="393fe-1-re 393fe-0-re 0f11f-14-re 0f11f-13-re" color="79,166,237" id="route_2EF11331-1C4F-4087-ACAE-17DAE43393FE-KM-25-GEGEN-C070DBEF-75FA-4CAF-99CE-5169B570F11F-KM-6000-GEGEN"/>
	<route edges="461ea-1 461ea-2 461ea-3" color="8,217,186" id="route_FF79EA02-7083-40F1-B044-F69D2E5461EA-KM-1000-IN-FF79EA02-7083-40F1-B044-F69D2E5461EA-KM-2904.2543286491227-IN"/>
	<route edges="461ea-3 461ea-4 b1de8-0-re 7dfe5-0 41e4a-2-re 41e4a-1-re" color="114,129,34" id="route_FF79EA02-7083-40F1-B044-F69D2E5461EA-KM-2904.2543286491227-IN-E25B484E-9380-48F0-B11A-0B173E141E4A-KM-25-GEGEN"/>
	<route edges="461ea-3 461ea-4 b1de8-0-re 7dfe5-0 e77d6-0 5d3c9-0 5d3c9-1" color="36,242,160" id="route_FF79EA02-7083-40F1-B044-F69D2E5461EA-KM-2904.2543286491227-IN-397524A2-E75E-44E3-883C-5CBDADE5D3C9-KM-893.3775715190525-IN"/>