<edges>
<!-- Track b7334788-81b3-4533-895a-f1ad8ea09c30 -->
<edge id="09c30-0" from="30dc2" to="b7334788-81b3-4533-895a-f1ad8ea09c30-km-25-gegen" shape="-2502198.1259712474,3467432.6135298666 -2502222.669270449,3467437.370258187" priority="-1" numLanes="1" speed="110.0" allow="rail rail_electric" spreadType="center" />
<edge id="09c30-0-re" from="b7334788-81b3-4533-895a-f1ad8ea09c30-km-25-gegen" to="30dc2" shape="-2502222.669270449,3467437.370258187 -2502198.1259712474,3467432.6135298666" priority="-1" numLanes="1" speed="110.0" allow="rail rail_electric" spreadType="center" />
<!-- Track b7334788-81b3-4533-895a-f1ad8ea09c30 -->
<edge id="09c30-1" from="b7334788-81b3-4533-895a-f1ad8ea09c30-km-25-gegen" to="b7334788-81b3-4533-895a-f1ad8ea09c30-km-321.5762856547864-in" shape="-2502222.669270449,3467437.370258187 -2502326.879854113,3467457.567275325 -2502513.502873321,3467495.4370743074" priority="-1" numLanes="1" speed="110.0" allow="rail rail_electric" spreadType="center" />
<edge id="09c30-1-re" from="b7334788-81b3-4533-895a-f1ad8ea09c30-km-321.5762856547864-in" to="b7334788-81b3-4533-895a-f1ad8ea09c30-km-25-gegen" shape="-2502513.502873321,3467495.4370743074 -2502326.879854113,3467457.567275325 -2502222.669270449,3467437.370258187" priority="-1" numLanes="1" speed="110.0" allow="rail rail_electric" spreadType="center" />
<!-- Track b7334788-81b3-4533-895a-f1ad8ea09c30 -->
<edge id="09c30-2" from="b7334788-81b3-4533-895a-f1ad8ea09c30-km-321.5762856547864-in" to="e59ce" shape="-2502513.502873321,3467495.4370743074 -2502538.003529084,3467500.4087809734" priority="-1" numLanes="1" speed="110.0" allow="rail rail_electric" spreadType="center" />
<edge id="09c30-2-re" from="e59ce" to="b7334788-81b3-4533-895a-f1ad8ea09c30-km-321.5762856547864-in" shape="-2502538.003529084,3467500.4087809734 -2502513.502873321,3467495.4370743074" priority="-1" numLanes="1" speed="110.0" allow="rail rail_electric" spreadType="center" />
<!-- Track c99b5a4e-bd8d-4045-a778-5cb27ca8541e -->
<edge id="8541e-0" from="30dc2" to="c99b5a4e-bd8d-4045-a778-5cb27ca8541e-km-25-gegen" shape="-2502198.1259712474,3467432.6135298666 -2502173.6116686147,3467427.7095553116" priority="-1" numLanes="1" speed="110.0" allow="rail rail_electric" spreadType="center" />
<edge id="8541e-0-re" from="c99b5a4e-bd8d-4045-a778-5cb27ca8541e-km-25-gegen" to="30dc2" shape="-2502173.6116686147,3467427.7095553116 -2502198.1259712474,3467432.6135298666" priority="-1" numLanes="1" speed="110.0" allow="rail rail_electric" spreadType="center" />
<!-- Track c99b5a4e-bd8d-4045-a778-5cb27ca8541e -->
<edge id="8541e-1" from="c99b5a4e-bd8d-4045-a778-5cb27ca8541e-km-25-gegen" to="c99b5a4e-bd8d-4045-a778-5cb27ca8541e-km-165.5616561823125-in" shape="-2502173.6116686147,3467427.7095553116 -2502035.7808294874,3467400.137123897" priority="-1" numLanes="1" speed="110.0" allow="rail rail_electric" spreadType="center" />
<edge id="8541e-1-re" from="c99b5a4e-bd8d-4045-a778-5cb27ca8541e-km-165.5616561823125-in" to="c99b5a4e-bd8d-4045-a778-5cb27ca8541e-km-25-gegen" shape="-2502035.7808294874,3467400.137123897 -2502173.6116686147,3467427.7095553116" priority="-1" numLanes="1" speed="110.0" allow="rail rail_electric" spreadType="center" />
<!-- Track c99b5a4e-bd8d-4045-a778-5cb27ca8541e -->
<edge id="8541e-2" from="c99b5a4e-bd8d-4045-a778-5cb27ca8541e-km-165.5616561823125-in" to="5cfa9" shape="-2502035.7808294874,3467400.137123897 -2502011.2665268546,3467395.2331493422" priority="-1" numLanes="1" speed="110.0" allow="rail rail_electric" spreadType="center" />
<edge id="8541e-2-re" from="5cfa9" to="c99b5a4e-bd8d-4045-a778-5cb27ca8541e-km-165.5616561823125-in" shape="-2502011.2665268546,3467395.2331493422 -2502035.7808294874,3467400.137123897" priority="-1" numLanes="1" speed="110.0" allow="rail rail_electric" spreadType="center" />
<!-- Track ba60748f-0e73-4dad-b156-84d78397b7cc -->
<edge id="7b7cc-0" from="30dc2" to="ba60748f-0e73-4dad-b156-84d78397b7cc-km-25-gegen" shape="-2502198.1259712474,3467432.6135298666 -2502173.3051357637,3467429.6258675884" priority="-1" numLanes="1" speed="110.0" allow="rail rail_electric" spreadType="center" />
<edge id="7b7cc-0-re" from="ba60748f-0e73-4dad-b156-84d78397b7cc-km-25-gegen" to="30dc2" shape="-2502173.3051357637,3467429.6258675884 -2502198.1259712474,3467432.6135298666" priority="-1" numLanes="1" speed="110.0" allow="rail rail_electric" spreadType="center" />
<!-- Track ba60748f-0e73-4dad-b156-84d78397b7cc -->
<edge id="7b7cc-1" from="ba60748f-0e73-4dad-b156-84d78397b7cc-km-25-gegen" to="ba60748f-0e73-4dad-b156-84d78397b7cc-km-852.2588211144425-in" shape="-2502173.3051357637,3467429.6258675884 -2501986.5440240223,3467407.1455957647 -2501941.394594235,3467406.669230707 -2501900.14020605,3467408.084832847 -2501830.2628213717,3467412.3299855366 -2501757.781161777,3467419.529616246 -2501699.9119592384,3467418.698338378 -2501637.2374989176,3467415.157012349 -2501580.245985288,3467407.526348047 -2501352.99611748,3467362.206877052" priority="-1" numLanes="1" speed="110.0" allow="rail rail_electric" spreadType="center" />
<edge id="7b7cc-1-re" from="ba60748f-0e73-4dad-b156-84d78397b7cc-km-852.2588211144425-in" to="ba60748f-0e73-4dad-b156-84d78397b7cc-km-25-gegen" shape="-2501352.99611748,3467362.206877052 -2501580.245985288,3467407.526348047 -2501637.2374989176,3467415.157012349 -2501699.9119592384,3467418.698338378 -2501757.781161777,3467419.529616246 -2501830.2628213717,3467412.3299855366 -2501900.14020605,3467408.084832847 -2501941.394594235,3467406.669230707 -2501986.5440240223,3467407.1455957647 -2502173.3051357637,3467429.6258675884" priority="-1" numLanes="1" speed="110.0" allow="rail rail_electric" spreadType="center" />
<!-- Track ba60748f-0e73-4dad-b156-84d78397b7cc -->
<edge id="7b7cc-2" from="ba60748f-0e73-4dad-b156-84d78397b7cc-km-852.2588211144425-in" to="e5dcc" shape="-2501352.99611748,3467362.206877052 -2501328.4788967334,3467357.3175123837" priority="-1" numLanes="1" speed="110.0" allow="rail rail_electric" spreadType="center" />
<edge id="7b7cc-2-re" from="e5dcc" to="ba60748f-0e73-4dad-b156-84d78397b7cc-km-852.2588211144425-in" shape="-2501328.4788967334,3467357.3175123837 -2501352.99611748,3467362.206877052" priority="-1" numLanes="1" speed="110.0" allow="rail rail_electric" spreadType="center" />
<!-- Track 3deed310-2361-440c-87a9-2ec60dd7943a -->
<edge id="7943a-0" from="5cfa9" to="3deed310-2361-440c-87a9-2ec60dd7943a-km-25-gegen" shape="-2502011.2665268546,3467395.2331493422 -2501986.4846162554,3467391.938167242" priority="-1" numLanes="1" speed="110.0" allow="rail rail_electric" spreadType="center" />
<edge id="7943a-0-re" from="3deed310-2361-440c-87a9-2ec60dd7943a-km-25-gegen" to="5cfa9" shape="-2501986.4846162554,3467391.938167242 -2502011.2665268546,3467395.2331493422" priority="-1" numLanes="1" speed="110.0" allow="rail rail_electric" spreadType="center" />
<!-- Track 3deed310-2361-440c-87a9-2ec60dd7943a -->
<edge id="7943a-1" from="3deed310-2361-440c-87a9-2ec60dd7943a-km-25-gegen" to="3deed310-2361-440c-87a9-2ec60dd7943a-km-788.1457216628645-in" shape="-2501986.4846162554,3467391.938167242 -2501902.187891895,3467380.730145294 -2501866.152929621,3467378.21362713 -2501673.0765554016,3467367.3538590707 -2501592.416926997,3467359.140942909 -2501551.447303158,3467353.074182581 -2501505.253120913,3467345.780980693 -2501231.263445984,3467291.352738634" priority="-1" numLanes="1" speed="110.0" allow="rail rail_electric" spreadType="center" />
<edge id="7943a-1-re" from="3deed310-2361-440c-87a9-2ec60dd7943a-km-788.1457216628645-in" to="3deed310-2361-440c-87a9-2ec60dd7943a-km-25-gegen" shape="-2501231.263445984,3467291.352738634 -2501505.253120913,3467345.780980693 -2501551.447303158,3467353.074182581 -2501592.416926997,3467359.140942909 -2501673.0765554016,3467367.3538590707 -2501866.152929621,3467378.21362713 -2501902.187891895,3467380.730145294 -2501986.4846162554,3467391.938167242" priority="-1" numLanes="1" speed="110.0" allow="rail rail_electric" spreadType="center" />
<!-- Track 3deed310-2361-440c-87a9-2ec60dd7943a -->
<edge id="7943a-2" from="3deed310-2361-440c-87a9-2ec60dd7943a-km-788.1457216628645-in" to="ccfa6" shape="-2501231.263445984,3467291.352738634 -2501206.7425870663,3467286.4816527255" priority="-1" numLanes="1" speed="110.0" allow="rail rail_electric" spreadType="center" />
<edge id="7943a-2-re" from="ccfa6" to="3deed310-2361-440c-87a9-2ec60dd7943a-km-788.1457216628645-in" shape="-2501206.7425870663,3467286.4816527255 -2501231.263445984,3467291.352738634" priority="-1" numLanes="1" speed="110.0" allow="rail rail_electric" spreadType="center" />
<!-- Track 605543f3-532e-4be3-942f-d8cd988a4d8d -->
<edge id="a4d8d-0" from="5cfa9" to="605543f3-532e-4be3-942f-d8cd988a4d8d-km-25-gegen" shape="-2502011.2665268546,3467395.2331493422 -2501986.867727038,3467389.7835101327" priority="-1" numLanes="1" speed="110.0" allow="rail rail_electric" spreadType="center" />
<edge id="a4d8d-0-re" from="605543f3-532e-4be3-942f-d8cd988a4d8d-km-25-gegen" to="5cfa9" shape="-2501986.867727038,3467389.7835101327 -2502011.2665268546,3467395.2331493422" priority="-1" numLanes="1" speed="110.0" allow="rail rail_electric" spreadType="center" />
<!-- Track 605543f3-532e-4be3-942f-d8cd988a4d8d -->
<edge id="a4d8d-1" from="605543f3-532e-4be3-942f-d8cd988a4d8d-km-25-gegen" to="605543f3-532e-4be3-942f-d8cd988a4d8d-km-238.52550007798908-in" shape="-2501986.867727038,3467389.7835101327 -2501807.904326056,3467349.8108076043 -2501778.5806097006,3467342.790603453" priority="-1" numLanes="1" speed="110.0" allow="rail rail_electric" spreadType="center" />
<edge id="a4d8d-1-re" from="605543f3-532e-4be3-942f-d8cd988a4d8d-km-238.52550007798908-in" to="605543f3-532e-4be3-942f-d8cd988a4d8d-km-25-gegen" shape="-2501778.5806097006,3467342.790603453 -2501807.904326056,3467349.8108076043 -2501986.867727038,3467389.7835101327" priority="-1" numLanes="1" speed="110.0" allow="rail rail_electric" spreadType="center" />
<!-- Track 605543f3-532e-4be3-942f-d8cd988a4d8d -->
<edge id="a4d8d-2" from="605543f3-532e-4be3-942f-d8cd988a4d8d-km-238.52550007798908-in" to="8a5c1" shape="-2501778.5806097006,3467342.790603453 -2501754.2676406577,3467336.9699903987" priority="-1" numLanes="1" speed="110.0" allow="rail rail_electric" spreadType="center" />
<edge id="a4d8d-2-re" from="8a5c1" to="605543f3-532e-4be3-942f-d8cd988a4d8d-km-238.52550007798908-in" shape="-2501754.2676406577,3467336.9699903987 -2501778.5806097006,3467342.790603453" priority="-1" numLanes="1" speed="110.0" allow="rail rail_electric" spreadType="center" />
<!-- Track 5bb6e1bc-3a48-41dc-832c-78df7265fd96 -->
<edge id="5fd96-0" from="ccfa6" to="5bb6e1bc-3a48-41dc-832c-78df7265fd96-km-25-gegen" shape="-2501206.7425870663,3467286.4816527255 -2501182.2386736786,3467281.5260267616" priority="-1" numLanes="1" speed="110.0" allow="rail rail_electric" spreadType="center" />
<edge id="5fd96-0-re" from="5bb6e1bc-3a48-41dc-832c-78df7265fd96-km-25-gegen" to="ccfa6" shape="-2501182.2386736786,3467281.5260267616 -2501206.7425870663,3467286.4816527255" priority="-1" numLanes="1" speed="110.0" allow="rail rail_electric" spreadType="center" />
<!-- Track 5bb6e1bc-3a48-41dc-832c-78df7265fd96 -->
<edge id="5fd96-1" from="5bb6e1bc-3a48-41dc-832c-78df7265fd96-km-25-gegen" to="5bb6e1bc-3a48-41dc-832c-78df7265fd96-km-169.7673894741766-in" shape="-2501182.2386736786,3467281.5260267616 -2501040.343970758,3467252.8295054003" priority="-1" numLanes="1" speed="110.0" allow="rail rail_electric" spreadType="center" />
<edge id="5fd96-1-re" from="5bb6e1bc-3a48-41dc-832c-78df7265fd96-km-169.7673894741766-in" to="5bb6e1bc-3a48-41dc-832c-78df7265fd96-km-25-gegen" shape="-2501040.343970758,3467252.8295054003 -2501182.2386736786,3467281.5260267616" priority="-1" numLanes="1" speed="110.0" allow="rail rail_electric" spreadType="center" />
<!-- Track 5bb6e1bc-3a48-41dc-832c-78df7265fd96 -->
<edge id="5fd96-2" from="5bb6e1bc-3a48-41dc-832c-78df7265fd96-km-169.7673894741766-in" to="b8386" shape="-2501040.343970758,3467252.8295054003 -2501015.8400573703,3467247.8738794364" priority="-1" numLanes="1" speed="110.0" allow="rail rail_electric" spreadType="center" />
<edge id="5fd96-2-re" from="b8386" to="5bb6e1bc-3a48-41dc-832c-78df7265fd96-km-169.7673894741766-in" shape="-2501015.8400573703,3467247.8738794364 -2501040.343970758,3467252.8295054003" priority="-1" numLanes="1" speed="110.0" allow="rail rail_electric" spreadType="center" />
<!-- Track 748c5b74-fe19-413e-9802-60cf955cc84d -->
<edge id="cc84d-0" from="ccfa6" to="748c5b74-fe19-413e-9802-60cf955cc84d-km-25-gegen" shape="-2501206.7425870663,3467286.4816527255 -2501231.489801964,3467290.0278274002" priority="-1" numLanes="1" speed="110.0" allow="rail rail_electric" spreadType="center" />
<edge id="cc84d-0-re" from="748c5b74-fe19-413e-9802-60cf955cc84d-km-25-gegen" to="ccfa6" shape="-2501231.489801964,3467290.0278274002 -2501206.7425870663,3467286.4816527255" priority="-1" numLanes="1" speed="110.0" allow="rail rail_electric" spreadType="center" />
<!-- Track 748c5b74-fe19-413e-9802-60cf955cc84d -->
<edge id="cc84d-1" from="748c5b74-fe19-413e-9802-60cf955cc84d-km-25-gegen" to="0fd38" shape="-2501231.489801964,3467290.0278274002 -2501292.2642674847,3467298.736559732 -2501351.8286421327,3467306.9248945564 -2501777.896236745,3467364.0153826177" priority="-1" numLanes="1" speed="110.0" allow="rail rail_electric" spreadType="center" />
<edge id="cc84d-1-re" from="0fd38" to="748c5b74-fe19-413e-9802-60cf955cc84d-km-25-gegen" shape="-2501777.896236745,3467364.0153826177 -2501351.8286421327,3467306.9248945564 -2501292.2642674847,3467298.736559732 -2501231.489801964,3467290.0278274002" priority="-1" numLanes="1" speed="110.0" allow="rail rail_electric" spreadType="center" />
<!-- Track 8c4741f6-2412-4953-9404-25810ceaa8a0 -->
<edge id="aa8a0-0" from="b8386" to="8c4741f6-2412-4953-9404-25810ceaa8a0-km-25-gegen" shape="-2501015.8400573703,3467247.8738794364 -2500991.319573685,3467243.0009050015" priority="-1" numLanes="1" speed="110.0" allow="rail rail_electric" spreadType="center" />
<edge id="aa8a0-0-re" from="8c4741f6-2412-4953-9404-25810ceaa8a0-km-25-gegen" to="b8386" shape="-2500991.319573685,3467243.0009050015 -2501015.8400573703,3467247.8738794364" priority="-1" numLanes="1" speed="110.0" allow="rail rail_electric" spreadType="center" />
<!-- Track 8c4741f6-2412-4953-9404-25810ceaa8a0 -->
<edge id="aa8a0-1" from="8c4741f6-2412-4953-9404-25810ceaa8a0-km-25-gegen" to="8c4741f6-2412-4953-9404-25810ceaa8a0-km-684.7733628877847-in" shape="-2500991.319573685,3467243.0009050015 -2500344.2010944607,3467114.398555789" priority="-1" numLanes="1" speed="110.0" allow="rail rail_electric" spreadType="center" />
<edge id="aa8a0-1-re" from="8c4741f6-2412-4953-9404-25810ceaa8a0-km-684.7733628877847-in" to="8c4741f6-2412-4953-9404-25810ceaa8a0-km-25-gegen" shape="-2500344.2010944607,3467114.398555789 -2500991.319573685,3467243.0009050015" priority="-1" numLanes="1" speed="110.0" allow="rail rail_electric" spreadType="center" />
<!-- Track 8c4741f6-2412-4953-9404-25810ceaa8a0 -->
<edge id="aa8a0-2" from="8c4741f6-2412-4953-9404-25810ceaa8a0-km-684.7733628877847-in" to="927f7" shape="-2500344.2010944607,3467114.398555789 -2500319.680610776,3467109.5255813543" priority="-1" numLanes="1" speed="110.0" allow="rail rail_electric" spreadType="center" />
<edge id="aa8a0-2-re" from="927f7" to="8c4741f6-2412-4953-9404-25810ceaa8a0-km-684.7733628877847-in" shape="-2500319.680610776,3467109.5255813543 -2500344.2010944607,3467114.398555789" priority="-1" numLanes="1" speed="110.0" allow="rail rail_electric" spreadType="center" />
<!-- Track b92629be-6fad-443a-94be-39f04c5e96d0 -->
<edge id="e96d0-0" from="b8386" to="b92629be-6fad-443a-94be-39f04c5e96d0-km-25-gegen" shape="-2501015.8400573703,3467247.8738794364 -2501040.129426962,3467253.792200551" priority="-1" numLanes="1" speed="110.0" allow="rail rail_electric" spreadType="center" />
<edge id="e96d0-0-re" from="b92629be-6fad-443a-94be-39f04c5e96d0-km-25-gegen" to="b8386" shape="-2501040.129426962,3467253.792200551 -2501015.8400573703,3467247.8738794364" priority="-1" numLanes="1" speed="110.0" allow="rail rail_electric" spreadType="center" />
<!-- Track b92629be-6fad-443a-94be-39f04c5e96d0 -->
<edge id="e96d0-1" from="b92629be-6fad-443a-94be-39f04c5e96d0-km-25-gegen" to="2809e" shape="-2501040.129426962,3467253.792200551 -2501115.083613891,3467272.0554554053 -2501236.739845654,3467305.6705410834 -2501274.012567208,3467312.6615284346 -2501684.7521156543,3467394.7215760183" priority="-1" numLanes="1" speed="110.0" allow="rail rail_electric" spreadType="center" />
<edge id="e96d0-1-re" from="2809e" to="b92629be-6fad-443a-94be-39f04c5e96d0-km-25-gegen" shape="-2501684.7521156543,3467394.7215760183 -2501274.012567208,3467312.6615284346 -2501236.739845654,3467305.6705410834 -2501115.083613891,3467272.0554554053 -2501040.129426962,3467253.792200551" priority="-1" numLanes="1" speed="110.0" allow="rail rail_electric" spreadType="center" />
<!-- Track 68aac61f-bcf5-4c1d-a587-c0cc2a3521e7 -->
<edge id="521e7-0" from="e4d22" to="68aac61f-bcf5-4c1d-a587-c0cc2a3521e7-km-25-gegen" shape="-2512719.9413880925,3471469.651634462 -2512731.2061299887,3471491.969913742" priority="-1" numLanes="1" speed="110.0" allow="rail rail_electric" spreadType="center" />
<edge id="521e7-0-re" from="68aac61f-bcf5-4c1d-a587-c0cc2a3521e7-km-25-gegen" to="e4d22" shape="-2512731.2061299887,3471491.969913742 -2512719.9413880925,3471469.651634462" priority="-1" numLanes="1" speed="110.0" allow="rail rail_electric" spreadType="center" />
<!-- Track 68aac61f-bcf5-4c1d-a587-c0cc2a3521e7 -->
<edge id="521e7-1" from="68aac61f-bcf5-4c1d-a587-c0cc2a3521e7-km-25-gegen" to="68aac61f-bcf5-4c1d-a587-c0cc2a3521e7-km-1000-in" shape="-2512731.2061299887,3471491.969913742 -2513170.531063941,3472362.382805655" priority="-1" numLanes="1" speed="110.0" allow="rail rail_electric" spreadType="center" />
<edge id="521e7-1-re" from="68aac61f-bcf5-4c1d-a587-c0cc2a3521e7-km-1000-in" to="68aac61f-bcf5-4c1d-a587-c0cc2a3521e7-km-25-gegen" shape="-2513170.531063941,3472362.382805655 -2512731.2061299887,3471491.969913742" priority="-1" numLanes="1" speed="110.0" allow="rail rail_electric" spreadType="center" />
<!-- Track 68aac61f-bcf5-4c1d-a587-c0cc2a3521e7 -->
<edge id="521e7-2" from="68aac61f-bcf5-4c1d-a587-c0cc2a3521e7-km-1000-in" to="68aac61f-bcf5-4c1d-a587-c0cc2a3521e7-km-1000-gegen" shape="-2513170.531063941,3472362.382805655 -2513170.531063941,3472362.382805655" priority="-1" numLanes="1" speed="110.0" allow="rail rail_electric" spreadType="center" />
<edge id="521e7-2-re" from="68aac61f-bcf5-4c1d-a587-c0cc2a3521e7-km-1000-gegen" to="68aac61f-bcf5-4c1d-a587-c0cc2a3521e7-km-1000-in" shape="-2513170.531063941,3472362.382805655 -2513170.531063941,3472362.382805655" priority="-1" numLanes="1" speed="110.0" allow="rail rail_electric" spreadType="center" />
<!-- Track 68aac61f-bcf5-4c1d-a587-c0cc2a3521e7 -->
<edge id="521e7-3" from="68aac61f-bcf5-4c1d-a587-c0cc2a3521e7-km-1000-gegen" to="68aac61f-bcf5-4c1d-a587-c0cc2a3521e7-km-2112.2203445755-in" shape="-2513170.531063941,3472362.382805655 -2513429.238828385,3472874.9477797933 -2513417.24436876,3472908.98912018 -2513396.8876679232,3472959.2040010914 -2513360.2216036483,3473012.8917396944 -2513313.556886494,3473056.250634875 -2513265.7036556248,3473085.917950006 -2513210.537248438,3473114.148348151 -2513160.367493702,3473131.141541457 -2513106.5073364945,3473145.0811823457 -2513016.937725676,3473166.942893817" priority="-1" numLanes="1" speed="110.0" allow="rail rail_electric" spreadType="center" />
<edge id="521e7-3-re" from="68aac61f-bcf5-4c1d-a587-c0cc2a3521e7-km-2112.2203445755-in" to="68aac61f-bcf5-4c1d-a587-c0cc2a3521e7-km-1000-gegen" shape="-2513016.937725676,3473166.942893817 -2513106.5073364945,3473145.0811823457 -2513160.367493702,3473131.141541457 -2513210.537248438,3473114.148348151 -2513265.7036556248,3473085.917950006 -2513313.556886494,3473056.250634875 -2513360.2216036483,3473012.8917396944 -2513396.8876679232,3472959.2040010914 -2513417.24436876,3472908.98912018 -2513429.238828385,3472874.9477797933 -2513170.531063941,3472362.382805655" priority="-1" numLanes="1" speed="110.0" allow="rail rail_electric" spreadType="center" />
<!-- Track 68aac61f-bcf5-4c1d-a587-c0cc2a3521e7 -->
<edge id="521e7-4" from="68aac61f-bcf5-4c1d-a587-c0cc2a3521e7-km-2112.2203445755-in" to="04f35" shape="-2513016.937725676,3473166.942893817 -2512992.6506828726,3473172.870756151" priority="-1" numLanes="1" speed="110.0" allow="rail rail_electric" spreadType="center" />
<edge id="521e7-4-re" from="04f35" to="68aac61f-bcf5-4c1d-a587-c0cc2a3521e7-km-2112.2203445755-in" shape="-2512992.6506828726,3473172.870756151 -2513016.937725676,3473166.942893817" priority="-1" numLanes="1" speed="110.0" allow="rail rail_electric" spreadType="center" />
<!-- Track 804837fb-b1c6-41d6-81da-f527202cdcf3 -->
<edge id="cdcf3-0" from="e4d22" to="804837fb-b1c6-41d6-81da-f527202cdcf3-km-25-gegen" shape="-2512719.9413880925,3471469.651634462 -2512708.243370663,3471447.5573730306" priority="-1" numLanes="1" speed="110.0" allow="rail rail_electric" spreadType="center" />
<edge id="cdcf3-0-re" from="804837fb-b1c6-41d6-81da-f527202cdcf3-km-25-gegen" to="e4d22" shape="-2512708.243370663,3471447.5573730306 -2512719.9413880925,3471469.651634462" priority="-1" numLanes="1" speed="110.0" allow="rail rail_electric" spreadType="center" />
<!-- Track 804837fb-b1c6-41d6-81da-f527202cdcf3 -->
<edge id="cdcf3-1" from="804837fb-b1c6-41d6-81da-f527202cdcf3-km-25-gegen" to="804837fb-b1c6-41d6-81da-f527202cdcf3-km-1000-in" shape="-2512708.243370663,3471447.5573730306 -2512668.9449130734,3471373.3336508423 -2512631.845827833,3471319.504890777 -2512602.4524036935,3471281.7330175433 -2512568.8621272,3471244.3803964034 -2512524.6678583915,3471201.932756994 -2512474.8555175,3471159.6842308566 -2512423.512313014,3471120.9928635433 -2512364.7188961403,3471082.673203606 -2512319.5429753526,3471055.4617482238 -2512273.806450465,3471030.715502985 -2512218.6141565917,3471003.9824716523 -2512155.8133314764,3470976.4248145297 -2512099.240852657,3470955.0456905216 -2512038.6921325987,3470933.7096420713 -2511975.40821653,3470914.787074901 -2511935.5401050723,3470904.7706830925" priority="-1" numLanes="1" speed="110.0" allow="rail rail_electric" spreadType="center" />
<edge id="cdcf3-1-re" from="804837fb-b1c6-41d6-81da-f527202cdcf3-km-1000-in" to="804837fb-b1c6-41d6-81da-f527202cdcf3-km-25-gegen" shape="-2511935.5401050723,3470904.7706830925 -2511975.40821653,3470914.787074901 -2512038.6921325987,3470933.7096420713 -2512099.240852657,3470955.0456905216 -2512155.8133314764,3470976.4248145297 -2512218.6141565917,3471003.9824716523 -2512273.806450465,3471030.715502985 -2512319.5429753526,3471055.4617482238 -2512364.7188961403,3471082.673203606 -2512423.512313014,3471120.9928635433 -2512474.8555175,3471159.6842308566 -2512524.6678583915,3471201.932756994 -2512568.8621272,3471244.3803964034 -2512602.4524036935,3471281.7330175433 -2512631.845827833,3471319.504890777 -2512668.9449130734,3471373.3336508423 -2512708.243370663,3471447.5573730306" priority="-1" numLanes="1" speed="110.0" allow="rail rail_electric" spreadType="center" />
<!-- Track 804837fb-b1c6-41d6-81da-f527202cdcf3 -->
<edge id="cdcf3-2" from="804837fb-b1c6-41d6-81da-f527202cdcf3-km-1000-in" to="804837fb-b1c6-41d6-81da-f527202cdcf3-km-1000-gegen" shape="-2511935.5401050723,3470904.7706830925 -2511935.5401050723,3470904.7706830925" priority="-1" numLanes="1" speed="110.0" allow="rail rail_electric" spreadType="center" />
<edge id="cdcf3-2-re" from="804837fb-b1c6-41d6-81da-f527202cdcf3-km-1000-gegen" to="804837fb-b1c6-41d6-81da-f527202cdcf3-km-1000-in" shape="-2511935.5401050723,3470904.7706830925 -2511935.5401050723,3470904.7706830925" priority="-1" numLanes="1" speed="110.0" allow="rail rail_electric" spreadType="center" />
<!-- Track 804837fb-b1c6-41d6-81da-f527202cdcf3 -->
<edge id="cdcf3-3" from="804837fb-b1c6-41d6-81da-f527202cdcf3-km-1000-gegen" to="804837fb-b1c6-41d6-81da-f527202cdcf3-km-2890.8609817292295-in" shape="-2511935.5401050723,3470904.7706830925 -2511908.35121365,3470897.9397954643 -2511858.496554129,3470886.820070237 -2511804.937387743,3470877.439210601 -2511756.7413980123,3470869.6720401347 -2511678.622232401,3470859.761429336 -2511649.109620752,3470856.9448899254 -2511582.006706572,3470850.531062752 -2511285.605052214,3470823.401736185 -2510572.716508601,3470753.970908873 -2510515.8346682545,3470749.3856029958 -2510456.498051215,3470746.401295755 -2510403.206377428,3470745.773517523 -2510348.334679002,3470746.827370733 -2510054.543408722,3470762.27158239" priority="-1" numLanes="1" speed="110.0" allow="rail rail_electric" spreadType="center" />
<edge id="cdcf3-3-re" from="804837fb-b1c6-41d6-81da-f527202cdcf3-km-2890.8609817292295-in" to="804837fb-b1c6-41d6-81da-f527202cdcf3-km-1000-gegen" shape="-2510054.543408722,3470762.27158239 -2510348.334679002,3470746.827370733 -2510403.206377428,3470745.773517523 -2510456.498051215,3470746.401295755 -2510515.8346682545,3470749.3856029958 -2510572.716508601,3470753.970908873 -2511285.605052214,3470823.401736185 -2511582.006706572,3470850.531062752 -2511649.109620752,3470856.9448899254 -2511678.622232401,3470859.761429336 -2511756.7413980123,3470869.6720401347 -2511804.937387743,3470877.439210601 -2511858.496554129,3470886.820070237 -2511908.35121365,3470897.9397954643 -2511935.5401050723,3470904.7706830925" priority="-1" numLanes="1" speed="110.0" allow="rail rail_electric" spreadType="center" />
<!-- Track 804837fb-b1c6-41d6-81da-f527202cdcf3 -->
<edge id="cdcf3-4" from="804837fb-b1c6-41d6-81da-f527202cdcf3-km-2890.8609817292295-in" to="fa134" shape="-2510054.543408722,3470762.27158239 -2510029.5778805846,3470763.5839866027" priority="-1" numLanes="1" speed="110.0" allow="rail rail_electric" spreadType="center" />
<edge id="cdcf3-4-re" from="fa134" to="804837fb-b1c6-41d6-81da-f527202cdcf3-km-2890.8609817292295-in" shape="-2510029.5778805846,3470763.5839866027 -2510054.543408722,3470762.27158239" priority="-1" numLanes="1" speed="110.0" allow="rail rail_electric" spreadType="center" />
<!-- Track 3f9fda11-8ee4-4d32-b5cc-8f65cce0b432 -->
<edge id="0b432-0" from="e4d22" to="3f9fda11-8ee4-4d32-b5cc-8f65cce0b432-km-25-gegen" shape="-2512719.9413880925,3471469.651634462 -2512736.1396125588,3471488.6941533117" priority="-1" numLanes="1" speed="110.0" allow="rail rail_electric" spreadType="center" />
<edge id="0b432-0-re" from="3f9fda11-8ee4-4d32-b5cc-8f65cce0b432-km-25-gegen" to="e4d22" shape="-2512736.1396125588,3471488.6941533117 -2512719.9413880925,3471469.651634462" priority="-1" numLanes="1" speed="110.0" allow="rail rail_electric" spreadType="center" />
<!-- Track 3f9fda11-8ee4-4d32-b5cc-8f65cce0b432 -->
<edge id="0b432-1" from="3f9fda11-8ee4-4d32-b5cc-8f65cce0b432-km-25-gegen" to="3f9fda11-8ee4-4d32-b5cc-8f65cce0b432-km-238.29463403906152-in" shape="-2512736.1396125588,3471488.6941533117 -2512768.7400215566,3471527.01896503 -2512821.4352596463,3471577.6242499184 -2512856.9625488333,3471618.948386239 -2512875.408169538,3471649.190889937" priority="-1" numLanes="1" speed="110.0" allow="rail rail_electric" spreadType="center" />
<edge id="0b432-1-re" from="3f9fda11-8ee4-4d32-b5cc-8f65cce0b432-km-238.29463403906152-in" to="3f9fda11-8ee4-4d32-b5cc-8f65cce0b432-km-25-gegen" shape="-2512875.408169538,3471649.190889937 -2512856.9625488333,3471618.948386239 -2512821.4352596463,3471577.6242499184 -2512768.7400215566,3471527.01896503 -2512736.1396125588,3471488.6941533117" priority="-1" numLanes="1" speed="110.0" allow="rail rail_electric" spreadType="center" />
<!-- Track 3f9fda11-8ee4-4d32-b5cc-8f65cce0b432 -->
<edge id="0b432-2" from="3f9fda11-8ee4-4d32-b5cc-8f65cce0b432-km-238.29463403906152-in" to="40d7e" shape="-2512875.408169538,3471649.190889937 -2512888.425963195,3471670.5342038386" priority="-1" numLanes="1" speed="110.0" allow="rail rail_electric" spreadType="center" />
<edge id="0b432-2-re" from="40d7e" to="3f9fda11-8ee4-4d32-b5cc-8f65cce0b432-km-238.29463403906152-in" shape="-2512888.425963195,3471670.5342038386 -2512875.408169538,3471649.190889937" priority="-1" numLanes="1" speed="110.0" allow="rail rail_electric" spreadType="center" />
<!-- Track fcd557b6-283d-4eeb-aa29-5343a7693f86 -->
<edge id="93f86-0" from="88406" to="fcd557b6-283d-4eeb-aa29-5343a7693f86-km-25-gegen" shape="-2498540.5476426897,3466763.493575601 -2498516.147492651,3466758.0499850498" priority="-1" numLanes="1" speed="110.0" allow="rail rail_electric" spreadType="center" />
<edge id="93f86-0-re" from="fcd557b6-283d-4eeb-aa29-5343a7693f86-km-25-gegen" to="88406" shape="-2498516.147492651,3466758.0499850498 -2498540.5476426897,3466763.493575601" priority="-1" numLanes="1" speed="110.0" allow="rail rail_electric" spreadType="center" />
<!-- Track fcd557b6-283d-4eeb-aa29-5343a7693f86 -->
<edge id="93f86-1" from="fcd557b6-283d-4eeb-aa29-5343a7693f86-km-25-gegen" to="fcd557b6-283d-4eeb-aa29-5343a7693f86-km-254.45431792963808-in" shape="-2498516.147492651,3466758.0499850498 -2498402.661352981,3466732.7316129655 -2498329.9658797192,3466713.124746185 -2498293.0708839176,3466704.520165761" priority="-1" numLanes="1" speed="110.0" allow="rail rail_electric" spreadType="center" />
<edge id="93f86-1-re" from="fcd557b6-283d-4eeb-aa29-5343a7693f86-km-254.45431792963808-in" to="fcd557b6-283d-4eeb-aa29-5343a7693f86-km-25-gegen" shape="-2498293.0708839176,3466704.520165761 -2498329.9658797192,3466713.124746185 -2498402.661352981,3466732.7316129655 -2498516.147492651,3466758.0499850498" priority="-1" numLanes="1" speed="110.0" allow="rail rail_electric" spreadType="center" />
<!-- Track fcd557b6-283d-4eeb-aa29-5343a7693f86 -->
<edge id="93f86-2" from="fcd557b6-283d-4eeb-aa29-5343a7693f86-km-254.45431792963808-in" to="fad80" shape="-2498293.0708839176,3466704.520165761 -2498268.7242329344,3466698.8420863394" priority="-1" numLanes="1" speed="110.0" allow="rail rail_electric" spreadType="center" />