<?xml version="1.0" encoding="UTF-8"?>

<!-- generated on 2023-06-15 16:11:14 by Eclipse SUMO netedit Version 1.15.0
-->

<additional xmlns:xsi="http://www.w3.org/2001/XMLSchema-instance" xsi:noNamespaceSchemaLocation="http://sumo.dlr.de/xsd/additional_file.xsd">
    <!-- StoppingPlaces -->
    <busStop id="bs_0" lane="f146f-1-re_0" startPos="80.00" endPos="180.00"/>
    <busStop id="bs_1" lane="19261-3_0" startPos="1400.00" endPos="1500.00"/>
    <busStop id="bs_2" lane="e3ff2-9-re_0" startPos="880.00" endPos="980.00"/>
    <busStop id="bs_3" lane="30e26-1-re_0" startPos="510.00" endPos="610.00"/>
</additional>
