<connections>
<!-- Point 71999 1fa06ce8-cbd9-4a9c-8f6d-b71310871999 -->
<connection from="90018-0" to="f1248-0"/>
<connection from="90018-0" to="f1248-0-re"/>
<connection from="90018-0-re" to="f1248-0"/>
<connection from="90018-0-re" to="f1248-0-re"/>
<connection from="dfba0-0" to="f1248-0"/>
<connection from="dfba0-0" to="f1248-0-re"/>
<connection from="dfba0-0-re" to="f1248-0"/>
<connection from="dfba0-0-re" to="f1248-0-re"/>
<connection from="f1248-0" to="90018-0"/>
<connection from="f1248-0" to="dfba0-0"/>
<connection from="f1248-0" to="90018-0-re"/>
<connection from="f1248-0" to="dfba0-0-re"/>
<connection from="f1248-0-re" to="90018-0"/>
<connection from="f1248-0-re" to="dfba0-0"/>
<connection from="f1248-0-re" to="90018-0-re"/>
<connection from="f1248-0-re" to="dfba0-0-re"/>
<!-- Point 4b697 514e7fa5-fd94-4608-8bbe-cf278d94b697 -->
<connection from="fcd75-0" to="dfba0-4"/>
<connection from="fcd75-0" to="dfba0-4-re"/>
<connection from="fcd75-0-re" to="dfba0-4"/>
<connection from="fcd75-0-re" to="dfba0-4-re"/>
<connection from="fead4-0" to="dfba0-4"/>
<connection from="fead4-0" to="dfba0-4-re"/>
<connection from="fead4-0-re" to="dfba0-4"/>
<connection from="fead4-0-re" to="dfba0-4-re"/>
<connection from="dfba0-4" to="fcd75-0"/>
<connection from="dfba0-4" to="fead4-0"/>
<connection from="dfba0-4" to="fcd75-0-re"/>
<connection from="dfba0-4" to="fead4-0-re"/>
<connection from="dfba0-4-re" to="fcd75-0"/>
<connection from="dfba0-4-re" to="fead4-0"/>
<connection from="dfba0-4-re" to="fcd75-0-re"/>
<connection from="dfba0-4-re" to="fead4-0-re"/>
<!-- Point 1a3eb 5fe50d21-f965-44f3-9105-34a89b01a3eb -->
<connection from="23b09-0" to="d46f1-0"/>
<connection from="23b09-0" to="d46f1-0-re"/>
<connection from="23b09-0-re" to="d46f1-0"/>
<connection from="23b09-0-re" to="d46f1-0-re"/>
<connection from="fcd75-4" to="d46f1-0"/>
<connection from="fcd75-4" to="d46f1-0-re"/>
<connection from="fcd75-4-re" to="d46f1-0"/>
<connection from="fcd75-4-re" to="d46f1-0-re"/>
<connection from="d46f1-0" to="23b09-0"/>
<connection from="d46f1-0" to="fcd75-4"/>
<connection from="d46f1-0" to="23b09-0-re"/>
<connection from="d46f1-0" to="fcd75-4-re"/>
<connection from="d46f1-0-re" to="23b09-0"/>
<connection from="d46f1-0-re" to="fcd75-4"/>
<connection from="d46f1-0-re" to="23b09-0-re"/>
<connection from="d46f1-0-re" to="fcd75-4-re"/>
<!-- Point d44b6 23e80873-b6a4-4c06-ab54-de95f68d44b6 -->
<connection from="d46f1-4" to="b9430-0"/>
<connection from="d46f1-4" to="b9430-0-re"/>
<connection from="d46f1-4-re" to="b9430-0"/>
<connection from="d46f1-4-re" to="b9430-0-re"/>
<connection from="1627c-0" to="b9430-0"/>
<connection from="1627c-0" to="b9430-0-re"/>
<connection from="1627c-0-re" to="b9430-0"/>
<connection from="1627c-0-re" to="b9430-0-re"/>
<connection from="b9430-0" to="d46f1-4"/>
<connection from="b9430-0" to="1627c-0"/>
<connection from="b9430-0" to="d46f1-4-re"/>
<connection from="b9430-0" to="1627c-0-re"/>
<connection from="b9430-0-re" to="d46f1-4"/>
<connection from="b9430-0-re" to="1627c-0"/>
<connection from="b9430-0-re" to="d46f1-4-re"/>
<connection from="b9430-0-re" to="1627c-0-re"/>
<!-- Point 7e6a3 e057694e-6df0-47a9-8203-38ceebe7e6a3 -->
<connection from="39cec-0" to="1fb51-0"/>
<connection from="39cec-0" to="1fb51-0-re"/>
<connection from="39cec-0-re" to="1fb51-0"/>
<connection from="39cec-0-re" to="1fb51-0-re"/>
<connection from="47c16-0" to="1fb51-0"/>
<connection from="47c16-0" to="1fb51-0-re"/>
<connection from="47c16-0-re" to="1fb51-0"/>
<connection from="47c16-0-re" to="1fb51-0-re"/>
<connection from="1fb51-0" to="39cec-0"/>
<connection from="1fb51-0" to="47c16-0"/>
<connection from="1fb51-0" to="39cec-0-re"/>
<connection from="1fb51-0" to="47c16-0-re"/>
<connection from="1fb51-0-re" to="39cec-0"/>
<connection from="1fb51-0-re" to="47c16-0"/>
<connection from="1fb51-0-re" to="39cec-0-re"/>
<connection from="1fb51-0-re" to="47c16-0-re"/>
<!-- Point 7a9c4 266b2c50-82df-41f8-9704-384c05d7a9c4 -->
<connection from="19145-0" to="36e48-0"/>
<connection from="19145-0" to="36e48-0-re"/>
<connection from="19145-0-re" to="36e48-0"/>
<connection from="19145-0-re" to="36e48-0-re"/>
<connection from="35b6d-0" to="36e48-0"/>
<connection from="35b6d-0" to="36e48-0-re"/>
<connection from="35b6d-0-re" to="36e48-0"/>
<connection from="35b6d-0-re" to="36e48-0-re"/>
<connection from="36e48-0" to="19145-0"/>
<connection from="36e48-0" to="35b6d-0"/>
<connection from="36e48-0" to="19145-0-re"/>
<connection from="36e48-0" to="35b6d-0-re"/>
<connection from="36e48-0-re" to="19145-0"/>
<connection from="36e48-0-re" to="35b6d-0"/>
<connection from="36e48-0-re" to="19145-0-re"/>
<connection from="36e48-0-re" to="35b6d-0-re"/>
<!-- Point 65995 d55f11a4-310a-4202-a721-28c69c765995 -->
<connection from="74243-0" to="1d3cc-0"/>
<connection from="74243-0" to="1d3cc-0-re"/>
<connection from="74243-0-re" to="1d3cc-0"/>
<connection from="74243-0-re" to="1d3cc-0-re"/>
<connection from="35b6d-4" to="1d3cc-0"/>
<connection from="35b6d-4" to="1d3cc-0-re"/>
<connection from="35b6d-4-re" to="1d3cc-0"/>
<connection from="35b6d-4-re" to="1d3cc-0-re"/>
<connection from="1d3cc-0" to="74243-0"/>
<connection from="1d3cc-0" to="35b6d-4"/>
<connection from="1d3cc-0" to="74243-0-re"/>
<connection from="1d3cc-0" to="35b6d-4-re"/>
<connection from="1d3cc-0-re" to="74243-0"/>
<connection from="1d3cc-0-re" to="35b6d-4"/>
<connection from="1d3cc-0-re" to="74243-0-re"/>
<connection from="1d3cc-0-re" to="35b6d-4-re"/>
<!-- Point 9897f de5328f0-3dec-4844-a916-d6358319897f -->
<connection from="15baa-0" to="bf3e8-0"/>
<connection from="15baa-0" to="bf3e8-0-re"/>
<connection from="15baa-0-re" to="bf3e8-0"/>
<connection from="15baa-0-re" to="bf3e8-0-re"/>
<connection from="77e07-0" to="bf3e8-0"/>
<connection from="77e07-0" to="bf3e8-0-re"/>
<connection from="77e07-0-re" to="bf3e8-0"/>
<connection from="77e07-0-re" to="bf3e8-0-re"/>
<connection from="bf3e8-0" to="15baa-0"/>
<connection from="bf3e8-0" to="77e07-0"/>
<connection from="bf3e8-0" to="15baa-0-re"/>
<connection from="bf3e8-0" to="77e07-0-re"/>
<connection from="bf3e8-0-re" to="15baa-0"/>
<connection from="bf3e8-0-re" to="77e07-0"/>
<connection from="bf3e8-0-re" to="15baa-0-re"/>
<connection from="bf3e8-0-re" to="77e07-0-re"/>

<!-- Point 8967f fc99816d-22c5-4301-9020-d3866bf8967f -->
<connection from="908d4-0" to="c3a24-0"/>
<connection from="908d4-0" to="c3a24-0-re"/>
<connection from="908d4-0-re" to="c3a24-0"/>
<connection from="908d4-0-re" to="c3a24-0-re"/>
<connection from="d585e-0" to="c3a24-0"/>
<connection from="d585e-0" to="c3a24-0-re"/>
<connection from="d585e-0-re" to="c3a24-0"/>
<connection from="d585e-0-re" to="c3a24-0-re"/>
<connection from="c3a24-0" to="908d4-0"/>
<connection from="c3a24-0" to="d585e-0"/>
<connection from="c3a24-0" to="908d4-0-re"/>
<connection from="c3a24-0" to="d585e-0-re"/>
<connection from="c3a24-0-re" to="908d4-0"/>
<connection from="c3a24-0-re" to="d585e-0"/>
<connection from="c3a24-0-re" to="908d4-0-re"/>
<connection from="c3a24-0-re" to="d585e-0-re"/>
<!-- Point ffb40 da4703a3-6ba0-4fae-92a4-263031dffb40 -->
<connection from="e1a2d-0" to="d585e-0"/>
<connection from="e1a2d-0" to="d585e-0-re"/>
<connection from="e1a2d-0-re" to="d585e-0"/>
<connection from="e1a2d-0-re" to="d585e-0-re"/>
<connection from="bdfd7-0" to="d585e-0"/>
<connection from="bdfd7-0" to="d585e-0-re"/>
<connection from="bdfd7-0-re" to="d585e-0"/>
<connection from="bdfd7-0-re" to="d585e-0-re"/>
<connection from="d585e-0" to="e1a2d-0"/>
<connection from="d585e-0" to="bdfd7-0"/>
<connection from="d585e-0" to="e1a2d-0-re"/>
<connection from="d585e-0" to="bdfd7-0-re"/>
<connection from="d585e-0-re" to="e1a2d-0"/>
<connection from="d585e-0-re" to="bdfd7-0"/>
<connection from="d585e-0-re" to="e1a2d-0-re"/>
<connection from="d585e-0-re" to="bdfd7-0-re"/>
<!-- Point 3d6cd 9f5fcc82-8ddd-402f-b17a-51cc13d3d6cd -->
<connection from="8c7f8-0" to="cc780-0"/>
<connection from="8c7f8-0" to="cc780-0-re"/>
<connection from="8c7f8-0-re" to="cc780-0"/>
<connection from="8c7f8-0-re" to="cc780-0-re"/>
<connection from="bdfd7-4" to="cc780-0"/>
<connection from="bdfd7-4" to="cc780-0-re"/>
<connection from="bdfd7-4-re" to="cc780-0"/>
<connection from="bdfd7-4-re" to="cc780-0-re"/>
<connection from="cc780-0" to="8c7f8-0"/>
<connection from="cc780-0" to="bdfd7-4"/>
<connection from="cc780-0" to="8c7f8-0-re"/>
<connection from="cc780-0" to="bdfd7-4-re"/>
<connection from="cc780-0-re" to="8c7f8-0"/>
<connection from="cc780-0-re" to="bdfd7-4"/>
<connection from="cc780-0-re" to="8c7f8-0-re"/>
<connection from="cc780-0-re" to="bdfd7-4-re"/>
<!-- Point 60557 57cd0222-9d8f-4328-a827-71dd14960557 -->
<connection from="cc780-0" to="26428-0"/>
<connection from="cc780-0" to="26428-0-re"/>
<connection from="cc780-0-re" to="26428-0"/>
<connection from="cc780-0-re" to="26428-0-re"/>
<connection from="e9f91-0" to="26428-0"/>
<connection from="e9f91-0" to="26428-0-re"/>
<connection from="e9f91-0-re" to="26428-0"/>
<connection from="e9f91-0-re" to="26428-0-re"/>
<connection from="26428-0" to="cc780-0"/>
<connection from="26428-0" to="e9f91-0"/>
<connection from="26428-0" to="cc780-0-re"/>
<connection from="26428-0" to="e9f91-0-re"/>
<connection from="26428-0-re" to="cc780-0"/>
<connection from="26428-0-re" to="e9f91-0"/>
<connection from="26428-0-re" to="cc780-0-re"/>
<connection from="26428-0-re" to="e9f91-0-re"/>
<!-- Point da46b 247cecd8-bf53-49a3-81ce-f784cb3da46b -->
<connection from="26428-0" to="d2cf9-0"/>
<connection from="26428-0" to="d2cf9-0-re"/>
<connection from="26428-0-re" to="d2cf9-0"/>
<connection from="26428-0-re" to="d2cf9-0-re"/>
<connection from="20425-0" to="d2cf9-0"/>
<connection from="20425-0" to="d2cf9-0-re"/>
<connection from="20425-0-re" to="d2cf9-0"/>
<connection from="20425-0-re" to="d2cf9-0-re"/>
<connection from="d2cf9-0" to="26428-0"/>
<connection from="d2cf9-0" to="20425-0"/>
<connection from="d2cf9-0" to="26428-0-re"/>
<connection from="d2cf9-0" to="20425-0-re"/>
<connection from="d2cf9-0-re" to="26428-0"/>
<connection from="d2cf9-0-re" to="20425-0"/>
<connection from="d2cf9-0-re" to="26428-0-re"/>
<connection from="d2cf9-0-re" to="20425-0-re"/>
<!-- Point a447a 9fe376ec-f70a-4914-87b8-29960d5a447a -->
<connection from="b5872-0" to="d2cf9-4"/>
<connection from="b5872-0" to="d2cf9-4-re"/>
<connection from="b5872-0-re" to="d2cf9-4"/>
<connection from="b5872-0-re" to="d2cf9-4-re"/>
<connection from="f9709-0" to="d2cf9-4"/>
<connection from="f9709-0" to="d2cf9-4-re"/>
<connection from="f9709-0-re" to="d2cf9-4"/>
<connection from="f9709-0-re" to="d2cf9-4-re"/>
<connection from="d2cf9-4" to="b5872-0"/>
<connection from="d2cf9-4" to="f9709-0"/>
<connection from="d2cf9-4" to="b5872-0-re"/>
<connection from="d2cf9-4" to="f9709-0-re"/>
<connection from="d2cf9-4-re" to="b5872-0"/>
<connection from="d2cf9-4-re" to="f9709-0"/>
<connection from="d2cf9-4-re" to="b5872-0-re"/>
<connection from="d2cf9-4-re" to="f9709-0-re"/>
<!-- Point a5819 3112117a-1852-47b0-97ca-6364aa7a5819 -->
<connection from="7e090-0" to="a60aa-0"/>
<connection from="7e090-0" to="a60aa-0-re"/>
<connection from="7e090-0-re" to="a60aa-0"/>
<connection from="7e090-0-re" to="a60aa-0-re"/>
<connection from="f9709-0" to="a60aa-0"/>
<connection from="f9709-0" to="a60aa-0-re"/>
<connection from="f9709-0-re" to="a60aa-0"/>
<connection from="f9709-0-re" to="a60aa-0-re"/>
<connection from="a60aa-0" to="7e090-0"/>
<connection from="a60aa-0" to="f9709-0"/>
<connection from="a60aa-0" to="7e090-0-re"/>
<connection from="a60aa-0" to="f9709-0-re"/>
<connection from="a60aa-0-re" to="7e090-0"/>
<connection from="a60aa-0-re" to="f9709-0"/>
<connection from="a60aa-0-re" to="7e090-0-re"/>
<connection from="a60aa-0-re" to="f9709-0-re"/>
<!-- Point 70571 f2132ecb-ad87-4775-8e12-844538470571 -->
<connection from="115a7-0" to="a11cb-0"/>
<connection from="115a7-0" to="a11cb-0-re"/>
<connection from="115a7-0-re" to="a11cb-0"/>
<connection from="115a7-0-re" to="a11cb-0-re"/>
<connection from="3702b-0" to="a11cb-0"/>
<connection from="3702b-0" to="a11cb-0-re"/>
<connection from="3702b-0-re" to="a11cb-0"/>
<connection from="3702b-0-re" to="a11cb-0-re"/>
<connection from="a11cb-0" to="115a7-0"/>
<connection from="a11cb-0" to="3702b-0"/>
<connection from="a11cb-0" to="115a7-0-re"/>
<connection from="a11cb-0" to="3702b-0-re"/>
<connection from="a11cb-0-re" to="115a7-0"/>
<connection from="a11cb-0-re" to="3702b-0"/>
<connection from="a11cb-0-re" to="115a7-0-re"/>
<connection from="a11cb-0-re" to="3702b-0-re"/>

<!-- Point 03a5e 1e107710-5bc4-4edb-a3ca-78e0beb03a5e -->
<connection from="daa1f-0" to="f97ee-0"/>
<connection from="daa1f-0" to="f97ee-0-re"/>
<connection from="daa1f-0-re" to="f97ee-0"/>
<connection from="daa1f-0-re" to="f97ee-0-re"/>
<connection from="eae1d-0" to="f97ee-0"/>
<connection from="eae1d-0" to="f97ee-0-re"/>
<connection from="eae1d-0-re" to="f97ee-0"/>
<connection from="eae1d-0-re" to="f97ee-0-re"/>
<connection from="f97ee-0" to="daa1f-0"/>
<connection from="f97ee-0" to="eae1d-0"/>
<connection from="f97ee-0" to="daa1f-0-re"/>
<connection from="f97ee-0" to="eae1d-0-re"/>
<connection from="f97ee-0-re" to="daa1f-0"/>
<connection from="f97ee-0-re" to="eae1d-0"/>
<connection from="f97ee-0-re" to="daa1f-0-re"/>
<connection from="f97ee-0-re" to="eae1d-0-re"/>
<!-- Point b014e c4836f2e-97ba-467c-ab11-2618f4db014e -->
<connection from="daa1f-4" to="22e78-0"/>
<connection from="daa1f-4" to="22e78-0-re"/>
<connection from="daa1f-4-re" to="22e78-0"/>
<connection from="daa1f-4-re" to="22e78-0-re"/>
<connection from="2cf3b-0" to="22e78-0"/>
<connection from="2cf3b-0" to="22e78-0-re"/>
<connection from="2cf3b-0-re" to="22e78-0"/>
<connection from="2cf3b-0-re" to="22e78-0-re"/>
<connection from="22e78-0" to="daa1f-4"/>
<connection from="22e78-0" to="2cf3b-0"/>
<connection from="22e78-0" to="daa1f-4-re"/>
<connection from="22e78-0" to="2cf3b-0-re"/>
<connection from="22e78-0-re" to="daa1f-4"/>
<connection from="22e78-0-re" to="2cf3b-0"/>
<connection from="22e78-0-re" to="daa1f-4-re"/>
<connection from="22e78-0-re" to="2cf3b-0-re"/>
<!-- Point c487c c83b5606-aa5f-460f-8c38-6bc9a9ec487c -->
<connection from="29e87-0" to="22e78-0"/>
<connection from="29e87-0" to="22e78-0-re"/>
<connection from="29e87-0-re" to="22e78-0"/>
<connection from="29e87-0-re" to="22e78-0-re"/>
<connection from="a6d60-0" to="22e78-0"/>
<connection from="a6d60-0" to="22e78-0-re"/>
<connection from="a6d60-0-re" to="22e78-0"/>
<connection from="a6d60-0-re" to="22e78-0-re"/>
<connection from="22e78-0" to="29e87-0"/>
<connection from="22e78-0" to="a6d60-0"/>
<connection from="22e78-0" to="29e87-0-re"/>
<connection from="22e78-0" to="a6d60-0-re"/>
<connection from="22e78-0-re" to="29e87-0"/>
<connection from="22e78-0-re" to="a6d60-0"/>
<connection from="22e78-0-re" to="29e87-0-re"/>
<connection from="22e78-0-re" to="a6d60-0-re"/>
<!-- Point 35575 4c7e5cff-c2af-4f15-90c9-38604ee35575 -->
<connection from="b7c89-0" to="3883b-0"/>
<connection from="b7c89-0" to="3883b-0-re"/>
<connection from="b7c89-0-re" to="3883b-0"/>
<connection from="b7c89-0-re" to="3883b-0-re"/>
<connection from="6ff3c-0" to="3883b-0"/>
<connection from="6ff3c-0" to="3883b-0-re"/>
<connection from="6ff3c-0-re" to="3883b-0"/>
<connection from="6ff3c-0-re" to="3883b-0-re"/>
<connection from="3883b-0" to="b7c89-0"/>
<connection from="3883b-0" to="6ff3c-0"/>
<connection from="3883b-0" to="b7c89-0-re"/>
<connection from="3883b-0" to="6ff3c-0-re"/>
<connection from="3883b-0-re" to="b7c89-0"/>
<connection from="3883b-0-re" to="6ff3c-0"/>
<connection from="3883b-0-re" to="b7c89-0-re"/>
<connection from="3883b-0-re" to="6ff3c-0-re"/>
<!-- Point d5261 434269b0-df27-4b73-825e-7ffb6a7d5261 -->
<connection from="3a3d4-0" to="1d3cc-4"/>
<connection from="3a3d4-0" to="1d3cc-4-re"/>
<connection from="3a3d4-0-re" to="1d3cc-4"/>
<connection from="3a3d4-0-re" to="1d3cc-4-re"/>
<connection from="8fea4-0" to="1d3cc-4"/>
<connection from="8fea4-0" to="1d3cc-4-re"/>
<connection from="8fea4-0-re" to="1d3cc-4"/>
<connection from="8fea4-0-re" to="1d3cc-4-re"/>
<connection from="1d3cc-4" to="3a3d4-0"/>
<connection from="1d3cc-4" to="8fea4-0"/>
<connection from="1d3cc-4" to="3a3d4-0-re"/>
<connection from="1d3cc-4" to="8fea4-0-re"/>
<connection from="1d3cc-4-re" to="3a3d4-0"/>
<connection from="1d3cc-4-re" to="8fea4-0"/>
<connection from="1d3cc-4-re" to="3a3d4-0-re"/>
<connection from="1d3cc-4-re" to="8fea4-0-re"/>
<!-- Point 26152 8e7b3f7c-3213-4f1d-bda0-d59d5d026152 -->
<connection from="1c5bc-0" to="b9479-0"/>
<connection from="1c5bc-0" to="b9479-0-re"/>
<connection from="1c5bc-0-re" to="b9479-0"/>
<connection from="1c5bc-0-re" to="b9479-0-re"/>
<connection from="3a3d4-0" to="b9479-0"/>
<connection from="3a3d4-0" to="b9479-0-re"/>
<connection from="3a3d4-0-re" to="b9479-0"/>
<connection from="3a3d4-0-re" to="b9479-0-re"/>
<connection from="b9479-0" to="1c5bc-0"/>
<connection from="b9479-0" to="3a3d4-0"/>
<connection from="b9479-0" to="1c5bc-0-re"/>
<connection from="b9479-0" to="3a3d4-0-re"/>
<connection from="b9479-0-re" to="1c5bc-0"/>
<connection from="b9479-0-re" to="3a3d4-0"/>
<connection from="b9479-0-re" to="1c5bc-0-re"/>
<connection from="b9479-0-re" to="3a3d4-0-re"/>
<!-- Point 7b945 6264cccf-112f-4e3a-8673-2ee19db7b945 -->
<connection from="43def-0" to="b9479-0"/>
<connection from="43def-0" to="b9479-0-re"/>
<connection from="43def-0-re" to="b9479-0"/>
<connection from="43def-0-re" to="b9479-0-re"/>
<connection from="ac82a-0" to="b9479-0"/>
<connection from="ac82a-0" to="b9479-0-re"/>
<connection from="ac82a-0-re" to="b9479-0"/>
<connection from="ac82a-0-re" to="b9479-0-re"/>
<connection from="b9479-0" to="43def-0"/>
<connection from="b9479-0" to="ac82a-0"/>
<connection from="b9479-0" to="43def-0-re"/>
<connection from="b9479-0" to="ac82a-0-re"/>
<connection from="b9479-0-re" to="43def-0"/>
<connection from="b9479-0-re" to="ac82a-0"/>
<connection from="b9479-0-re" to="43def-0-re"/>
<connection from="b9479-0-re" to="ac82a-0-re"/>
<!-- Point 92e22 c9bf9951-225b-4f6d-960b-0dfb5d292e22 -->
<connection from="ac82a-4" to="bf3e8-0"/>
<connection from="ac82a-4" to="bf3e8-0-re"/>
<connection from="ac82a-4-re" to="bf3e8-0"/>
<connection from="ac82a-4-re" to="bf3e8-0-re"/>
<connection from="9c94e-0" to="bf3e8-0"/>
<connection from="9c94e-0" to="bf3e8-0-re"/>
<connection from="9c94e-0-re" to="bf3e8-0"/>
<connection from="9c94e-0-re" to="bf3e8-0-re"/>
<connection from="bf3e8-0" to="ac82a-4"/>
<connection from="bf3e8-0" to="9c94e-0"/>
<connection from="bf3e8-0" to="ac82a-4-re"/>
<connection from="bf3e8-0" to="9c94e-0-re"/>
<connection from="bf3e8-0-re" to="ac82a-4"/>
<connection from="bf3e8-0-re" to="9c94e-0"/>
<connection from="bf3e8-0-re" to="ac82a-4-re"/>
<connection from="bf3e8-0-re" to="9c94e-0-re"/>
<!-- Point 6b821 7a68dd1b-6bef-4b60-817e-998080a6b821 -->
<connection from="067a8-0" to="9810c-0"/>
<connection from="067a8-0" to="9810c-0-re"/>
<connection from="067a8-0-re" to="9810c-0"/>
<connection from="067a8-0-re" to="9810c-0-re"/>
<connection from="3883b-16" to="9810c-0"/>
<connection from="3883b-16" to="9810c-0-re"/>
<connection from="3883b-16-re" to="9810c-0"/>
<connection from="3883b-16-re" to="9810c-0-re"/>
<connection from="9810c-0" to="067a8-0"/>
<connection from="9810c-0" to="3883b-16"/>
<connection from="9810c-0" to="067a8-0-re"/>
<connection from="9810c-0" to="3883b-16-re"/>
<connection from="9810c-0-re" to="067a8-0"/>
<connection from="9810c-0-re" to="3883b-16"/>
<connection from="9810c-0-re" to="067a8-0-re"/>
<connection from="9810c-0-re" to="3883b-16-re"/>
<!-- Point 2b957 d82b6ce6-a54f-4f96-8ba1-ebe58552b957 -->
<connection from="d9ca5-0" to="37169-0"/>
<connection from="d9ca5-0" to="37169-0-re"/>
<connection from="d9ca5-0-re" to="37169-0"/>
<connection from="d9ca5-0-re" to="37169-0-re"/>
<connection from="28001-0" to="37169-0"/>
<connection from="28001-0" to="37169-0-re"/>
<connection from="28001-0-re" to="37169-0"/>
<connection from="28001-0-re" to="37169-0-re"/>
<connection from="37169-0" to="d9ca5-0"/>
<connection from="37169-0" to="28001-0"/>
<connection from="37169-0" to="d9ca5-0-re"/>
<connection from="37169-0" to="28001-0-re"/>
<connection from="37169-0-re" to="d9ca5-0"/>
<connection from="37169-0-re" to="28001-0"/>
<connection from="37169-0-re" to="d9ca5-0-re"/>
<connection from="37169-0-re" to="28001-0-re"/>

<!-- Point ec6a3 20cb14d5-2dd7-4425-9354-e46e530ec6a3 -->
<connection from="d8bb8-4" to="fc2fb-0"/>
<connection from="d8bb8-4" to="fc2fb-0-re"/>
<connection from="d8bb8-4-re" to="fc2fb-0"/>
<connection from="d8bb8-4-re" to="fc2fb-0-re"/>
<connection from="70616-0" to="fc2fb-0"/>
<connection from="70616-0" to="fc2fb-0-re"/>
<connection from="70616-0-re" to="fc2fb-0"/>
<connection from="70616-0-re" to="fc2fb-0-re"/>
<connection from="fc2fb-0" to="d8bb8-4"/>
<connection from="fc2fb-0" to="70616-0"/>
<connection from="fc2fb-0" to="d8bb8-4-re"/>
<connection from="fc2fb-0" to="70616-0-re"/>
<connection from="fc2fb-0-re" to="d8bb8-4"/>
<connection from="fc2fb-0-re" to="70616-0"/>
<connection from="fc2fb-0-re" to="d8bb8-4-re"/>
<connection from="fc2fb-0-re" to="70616-0-re"/>

<!-- Point 26f28 3647e900-9412-400e-85e2-1bcb28f26f28 -->
<connection from="fc2fb-0" to="105e0-0"/>
<connection from="fc2fb-0" to="105e0-0-re"/>
<connection from="fc2fb-0-re" to="105e0-0"/>
<connection from="fc2fb-0-re" to="105e0-0-re"/>
<connection from="91005-0" to="105e0-0"/>
<connection from="91005-0" to="105e0-0-re"/>
<connection from="91005-0-re" to="105e0-0"/>
<connection from="91005-0-re" to="105e0-0-re"/>
<connection from="105e0-0" to="fc2fb-0"/>
<connection from="105e0-0" to="91005-0"/>
<connection from="105e0-0" to="fc2fb-0-re"/>
<connection from="105e0-0" to="91005-0-re"/>
<connection from="105e0-0-re" to="fc2fb-0"/>
<connection from="105e0-0-re" to="91005-0"/>
<connection from="105e0-0-re" to="fc2fb-0-re"/>
<connection from="105e0-0-re" to="91005-0-re"/>
<!-- Point 16160 31149f32-7f15-4d01-a2e5-db12a5116160 -->
<connection from="8d555-0" to="5e29d-0"/>
<connection from="8d555-0" to="5e29d-0-re"/>
<connection from="8d555-0-re" to="5e29d-0"/>
<connection from="8d555-0-re" to="5e29d-0-re"/>
<connection from="105e0-0" to="5e29d-0"/>
<connection from="105e0-0" to="5e29d-0-re"/>
<connection from="105e0-0-re" to="5e29d-0"/>
<connection from="105e0-0-re" to="5e29d-0-re"/>
<connection from="5e29d-0" to="8d555-0"/>
<connection from="5e29d-0" to="105e0-0"/>
<connection from="5e29d-0" to="8d555-0-re"/>
<connection from="5e29d-0" to="105e0-0-re"/>
<connection from="5e29d-0-re" to="8d555-0"/>
<connection from="5e29d-0-re" to="105e0-0"/>
<connection from="5e29d-0-re" to="8d555-0-re"/>
<connection from="5e29d-0-re" to="105e0-0-re"/>
<!-- Point be136 a5a9cc4c-1b38-424a-8329-bdc76edbe136 -->
<connection from="ecd5f-0" to="5e29d-0"/>
<connection from="ecd5f-0" to="5e29d-0-re"/>
<connection from="ecd5f-0-re" to="5e29d-0"/>
<connection from="ecd5f-0-re" to="5e29d-0-re"/>
<connection from="d819c-0" to="5e29d-0"/>
<connection from="d819c-0" to="5e29d-0-re"/>
<connection from="d819c-0-re" to="5e29d-0"/>
<connection from="d819c-0-re" to="5e29d-0-re"/>
<connection from="5e29d-0" to="ecd5f-0"/>
<connection from="5e29d-0" to="d819c-0"/>
<connection from="5e29d-0" to="ecd5f-0-re"/>
<connection from="5e29d-0" to="d819c-0-re"/>
<connection from="5e29d-0-re" to="ecd5f-0"/>
<connection from="5e29d-0-re" to="d819c-0"/>
<connection from="5e29d-0-re" to="ecd5f-0-re"/>
<connection from="5e29d-0-re" to="d819c-0-re"/>
<!-- Point ba40a a659ac3a-be2e-4b01-92b9-f12d2fdba40a -->
<connection from="b4f90-0" to="90c3f-0"/>
<connection from="b4f90-0" to="90c3f-0-re"/>
<connection from="b4f90-0-re" to="90c3f-0"/>
<connection from="b4f90-0-re" to="90c3f-0-re"/>
<connection from="ecd5f-4" to="90c3f-0"/>
<connection from="ecd5f-4" to="90c3f-0-re"/>
<connection from="ecd5f-4-re" to="90c3f-0"/>
<connection from="ecd5f-4-re" to="90c3f-0-re"/>
<connection from="90c3f-0" to="b4f90-0"/>
<connection from="90c3f-0" to="ecd5f-4"/>
<connection from="90c3f-0" to="b4f90-0-re"/>
<connection from="90c3f-0" to="ecd5f-4-re"/>
<connection from="90c3f-0-re" to="b4f90-0"/>
<connection from="90c3f-0-re" to="ecd5f-4"/>
<connection from="90c3f-0-re" to="b4f90-0-re"/>
<connection from="90c3f-0-re" to="ecd5f-4-re"/>
<!-- Point a700f c3d2a53b-5434-4123-9ee8-8a2ffe7a700f -->
<connection from="8fba9-0" to="90c3f-4"/>
<connection from="8fba9-0" to="90c3f-4-re"/>
<connection from="8fba9-0-re" to="90c3f-4"/>
<connection from="8fba9-0-re" to="90c3f-4-re"/>
<connection from="3c8fa-0" to="90c3f-4"/>
<connection from="3c8fa-0" to="90c3f-4-re"/>
<connection from="3c8fa-0-re" to="90c3f-4"/>
<connection from="3c8fa-0-re" to="90c3f-4-re"/>
<connection from="90c3f-4" to="8fba9-0"/>
<connection from="90c3f-4" to="3c8fa-0"/>
<connection from="90c3f-4" to="8fba9-0-re"/>
<connection from="90c3f-4" to="3c8fa-0-re"/>
<connection from="90c3f-4-re" to="8fba9-0"/>
<connection from="90c3f-4-re" to="3c8fa-0"/>
<connection from="90c3f-4-re" to="8fba9-0-re"/>
<connection from="90c3f-4-re" to="3c8fa-0-re"/>
<!-- Point 70669 4e8445db-d489-418b-a761-8414a6770669 -->
<connection from="5877d-0" to="4cc00-0"/>
<connection from="5877d-0" to="4cc00-0-re"/>
<connection from="5877d-0-re" to="4cc00-0"/>
<connection from="5877d-0-re" to="4cc00-0-re"/>
<connection from="8fba9-4" to="4cc00-0"/>
<connection from="8fba9-4" to="4cc00-0-re"/>
<connection from="8fba9-4-re" to="4cc00-0"/>
<connection from="8fba9-4-re" to="4cc00-0-re"/>
<connection from="4cc00-0" to="5877d-0"/>
<connection from="4cc00-0" to="8fba9-4"/>
<connection from="4cc00-0" to="5877d-0-re"/>
<connection from="4cc00-0" to="8fba9-4-re"/>
<connection from="4cc00-0-re" to="5877d-0"/>
<connection from="4cc00-0-re" to="8fba9-4"/>
<connection from="4cc00-0-re" to="5877d-0-re"/>
<connection from="4cc00-0-re" to="8fba9-4-re"/>
<!-- Point 23c8a e3c6d77f-3c15-4d0f-8d83-8c06e4f23c8a -->
<connection from="4cc00-0" to="2c928-0"/>
<connection from="4cc00-0" to="2c928-0-re"/>
<connection from="4cc00-0-re" to="2c928-0"/>
<connection from="4cc00-0-re" to="2c928-0-re"/>
<connection from="26d81-0" to="2c928-0"/>
<connection from="26d81-0" to="2c928-0-re"/>
<connection from="26d81-0-re" to="2c928-0"/>
<connection from="26d81-0-re" to="2c928-0-re"/>
<connection from="2c928-0" to="4cc00-0"/>
<connection from="2c928-0" to="26d81-0"/>
<connection from="2c928-0" to="4cc00-0-re"/>
<connection from="2c928-0" to="26d81-0-re"/>
<connection from="2c928-0-re" to="4cc00-0"/>
<connection from="2c928-0-re" to="26d81-0"/>
<connection from="2c928-0-re" to="4cc00-0-re"/>
<connection from="2c928-0-re" to="26d81-0-re"/>
<!-- Point 80d8b 96bcdbfd-a1ac-451f-975c-f448a1280d8b -->
<connection from="b2ff1-0" to="b8f37-0"/>
<connection from="b2ff1-0" to="b8f37-0-re"/>
<connection from="b2ff1-0-re" to="b8f37-0"/>
<connection from="b2ff1-0-re" to="b8f37-0-re"/>
<connection from="ff250-0" to="b8f37-0"/>
<connection from="ff250-0" to="b8f37-0-re"/>
<connection from="ff250-0-re" to="b8f37-0"/>
<connection from="ff250-0-re" to="b8f37-0-re"/>
<connection from="b8f37-0" to="b2ff1-0"/>
<connection from="b8f37-0" to="ff250-0"/>
<connection from="b8f37-0" to="b2ff1-0-re"/>
<connection from="b8f37-0" to="ff250-0-re"/>
<connection from="b8f37-0-re" to="b2ff1-0"/>
<connection from="b8f37-0-re" to="ff250-0"/>
<connection from="b8f37-0-re" to="b2ff1-0-re"/>
<connection from="b8f37-0-re" to="ff250-0-re"/>
<!-- Point 5e97a 2c01524b-0293-4ebd-9f36-d58e44a5e97a -->
<connection from="b2ff1-4" to="b0704-0"/>
<connection from="b2ff1-4" to="b0704-0-re"/>
<connection from="b2ff1-4-re" to="b0704-0"/>
<connection from="b2ff1-4-re" to="b0704-0-re"/>
<connection from="854a2-0" to="b0704-0"/>
<connection from="854a2-0" to="b0704-0-re"/>
<connection from="854a2-0-re" to="b0704-0"/>
<connection from="854a2-0-re" to="b0704-0-re"/>
<connection from="b0704-0" to="b2ff1-4"/>
<connection from="b0704-0" to="854a2-0"/>
<connection from="b0704-0" to="b2ff1-4-re"/>
<connection from="b0704-0" to="854a2-0-re"/>
<connection from="b0704-0-re" to="b2ff1-4"/>
<connection from="b0704-0-re" to="854a2-0"/>
<connection from="b0704-0-re" to="b2ff1-4-re"/>
<connection from="b0704-0-re" to="854a2-0-re"/>
<!-- Point 182e8 edc786d3-c392-44ff-b092-1ab604c182e8 -->
<connection from="43def-4" to="b0704-0"/>
<connection from="43def-4" to="b0704-0-re"/>
<connection from="43def-4-re" to="b0704-0"/>
<connection from="43def-4-re" to="b0704-0-re"/>
<connection from="1b676-0" to="b0704-0"/>
<connection from="1b676-0" to="b0704-0-re"/>
<connection from="1b676-0-re" to="b0704-0"/>
<connection from="1b676-0-re" to="b0704-0-re"/>
<connection from="b0704-0" to="43def-4"/>
<connection from="b0704-0" to="1b676-0"/>
<connection from="b0704-0" to="43def-4-re"/>
<connection from="b0704-0" to="1b676-0-re"/>
<connection from="b0704-0-re" to="43def-4"/>
<connection from="b0704-0-re" to="1b676-0"/>
<connection from="b0704-0-re" to="43def-4-re"/>
<connection from="b0704-0-re" to="1b676-0-re"/>
<!-- Point 07d5d fdb99afc-eca9-4116-a743-0145d5007d5d -->
<connection from="526fc-0" to="1b676-0"/>
<connection from="526fc-0" to="1b676-0-re"/>
<connection from="526fc-0-re" to="1b676-0"/>
<connection from="526fc-0-re" to="1b676-0-re"/>
<connection from="381c0-0" to="1b676-0"/>
<connection from="381c0-0" to="1b676-0-re"/>
<connection from="381c0-0-re" to="1b676-0"/>
<connection from="381c0-0-re" to="1b676-0-re"/>
<connection from="1b676-0" to="526fc-0"/>
<connection from="1b676-0" to="381c0-0"/>
<connection from="1b676-0" to="526fc-0-re"/>
<connection from="1b676-0" to="381c0-0-re"/>
<connection from="1b676-0-re" to="526fc-0"/>
<connection from="1b676-0-re" to="381c0-0"/>
<connection from="1b676-0-re" to="526fc-0-re"/>
<connection from="1b676-0-re" to="381c0-0-re"/>
<!-- Point e7848 d095323a-15e4-4434-91f3-802a70ae7848 -->
<connection from="b4f90-0" to="f3b2c-0"/>
<connection from="b4f90-0" to="f3b2c-0-re"/>
<connection from="b4f90-0-re" to="f3b2c-0"/>
<connection from="b4f90-0-re" to="f3b2c-0-re"/>
<connection from="caff1-0" to="f3b2c-0"/>
<connection from="caff1-0" to="f3b2c-0-re"/>
<connection from="caff1-0-re" to="f3b2c-0"/>