<?xml version="1.0" encoding="UTF-8"?>
<routes xmlns:xsi="http://www.w3.org/2001/XMLSchema-instance" xsi:noNamespaceSchemaLocation="http://sumo.dlr.de/xsd/routes_file.xsd">
	<route edges="f1248-0 f1248-1 f1248-2" color="117,152,5" id="route_0F623454-1B27-48EE-94F1-C34BD2DF1248-KM-25-IN-0F623454-1B27-48EE-94F1-C34BD2DF1248-KM-301.5762856547864-IN"/>
	<route edges="f1248-2 f1248-3 f1248-4 29e87-0-re 22e78-0-re daa1f-4-re" color="208,146,222" id="route_0F623454-1B27-48EE-94F1-C34BD2DF1248-KM-301.5762856547864-IN-1C8FD2CB-7355-47D6-9246-1BB2B65DAA1F-KM-1615.0764173282626-GEGEN"/>
	<route edges="f1248-2 f1248-3 f1248-4 29e87-0-re 22e78-0-re 2cf3b-0 c6894-0" color="55,50,200" id="route_0F623454-1B27-48EE-94F1-C34BD2DF1248-KM-301.5762856547864-IN-0A01F254-1C3B-4780-88C5-3E50904C6894-KM-25-IN"/>
	<route edges="f1248-2 f1248-3 f1248-4 407b2-4-re" color="207,156,56" id="route_0F623454-1B27-48EE-94F1-C34BD2DF1248-KM-301.5762856547864-IN-7DCCAE97-C345-4128-B2E5-E4F7E6D407B2-KM-387.6570519499666-GEGEN"/>
	<route edges="f1248-4-re f1248-3-re f1248-2-re" color="38,205,29" id="route_0F623454-1B27-48EE-94F1-C34BD2DF1248-KM-321.5762856547864-GEGEN-0F623454-1B27-48EE-94F1-C34BD2DF1248-KM-45-GEGEN"/>
	<route edges="f1248-2-re f1248-1-re f1248-0-re 90018-0" color="98,168,77" id="route_0F623454-1B27-48EE-94F1-C34BD2DF1248-KM-45-GEGEN-2F4200BC-4B12-4804-9862-E819F6190018-KM-25-IN"/>
	<route edges="f1248-2-re f1248-1-re f1248-0-re dfba0-0" color="45,34,64" id="route_0F623454-1B27-48EE-94F1-C34BD2DF1248-KM-45-GEGEN-176E5E2B-CCC4-4F01-A087-400AF4DDFBA0-KM-25-IN"/>
	<route edges="dfba0-0 dfba0-1 dfba0-2" color="25,96,58" id="route_176E5E2B-CCC4-4F01-A087-400AF4DDFBA0-KM-25-IN-176E5E2B-CCC4-4F01-A087-400AF4DDFBA0-KM-145.5616561823125-IN"/>
	<route edges="dfba0-2 dfba0-3 dfba0-4 fcd75-0" color="160,18,48" id="route_176E5E2B-CCC4-4F01-A087-400AF4DDFBA0-KM-145.5616561823125-IN-4ADA6294-F7FE-4EBC-9AD4-65FC0FAFCD75-KM-25-IN"/>
	<route edges="dfba0-2 dfba0-3 dfba0-4 fead4-0" color="56,178,201" id="route_176E5E2B-CCC4-4F01-A087-400AF4DDFBA0-KM-145.5616561823125-IN-017A0A59-5E67-46EB-BD00-AEB97CDFEAD4-KM-25-IN"/>
	<route edges="dfba0-4-re dfba0-3-re dfba0-2-re" color="139,42,178" id="route_176E5E2B-CCC4-4F01-A087-400AF4DDFBA0-KM-165.5616561823125-GEGEN-176E5E2B-CCC4-4F01-A087-400AF4DDFBA0-KM-45-GEGEN"/>
	<route edges="dfba0-2-re dfba0-1-re dfba0-0-re f1248-0" color="45,33,134" id="route_176E5E2B-CCC4-4F01-A087-400AF4DDFBA0-KM-45-GEGEN-0F623454-1B27-48EE-94F1-C34BD2DF1248-KM-25-IN"/>
	<route edges="90018-0 90018-1 90018-2" color="123,102,169" id="route_2F4200BC-4B12-4804-9862-E819F6190018-KM-25-IN-2F4200BC-4B12-4804-9862-E819F6190018-KM-832.2588211144425-IN"/>
	<route edges="90018-2 90018-3 90018-4 aba36-0" color="162,238,100" id="route_2F4200BC-4B12-4804-9862-E819F6190018-KM-832.2588211144425-IN-EF13D060-8B59-4BCC-A265-E7D0383ABA36-KM-25-IN"/>
	<route edges="90018-2 90018-3 90018-4 c28df-0" color="49,219,166" id="route_2F4200BC-4B12-4804-9862-E819F6190018-KM-832.2588211144425-IN-632F7654-4C64-4D59-AFC2-743DA7DC28DF-KM-25-IN"/>
	<route edges="90018-4-re 90018-3-re 90018-2-re" color="200,120,180" id="route_2F4200BC-4B12-4804-9862-E819F6190018-KM-852.2588211144425-GEGEN-2F4200BC-4B12-4804-9862-E819F6190018-KM-45-GEGEN"/>
	<route edges="90018-2-re 90018-1-re 90018-0-re f1248-0" color="69,103,141" id="route_2F4200BC-4B12-4804-9862-E819F6190018-KM-45-GEGEN-0F623454-1B27-48EE-94F1-C34BD2DF1248-KM-25-IN"/>
	<route edges="fcd75-0 fcd75-1 fcd75-2" color="1,229,229" id="route_4ADA6294-F7FE-4EBC-9AD4-65FC0FAFCD75-KM-25-IN-4ADA6294-F7FE-4EBC-9AD4-65FC0FAFCD75-KM-768.1457216628645-IN"/>
	<route edges="fcd75-2 fcd75-3 fcd75-4 d46f1-0" color="12,45,246" id="route_4ADA6294-F7FE-4EBC-9AD4-65FC0FAFCD75-KM-768.1457216628645-IN-3D8424AE-F18A-4722-A655-C7E4877D46F1-KM-25-IN"/>
	<route edges="fcd75-4-re fcd75-3-re fcd75-2-re" color="180,107,246" id="route_4ADA6294-F7FE-4EBC-9AD4-65FC0FAFCD75-KM-788.1457216628645-GEGEN-4ADA6294-F7FE-4EBC-9AD4-65FC0FAFCD75-KM-45-GEGEN"/>
	<route edges="fcd75-2-re fcd75-1-re fcd75-0-re dfba0-4-re" color="13,109,215" id="route_4ADA6294-F7FE-4EBC-9AD4-65FC0FAFCD75-KM-45-GEGEN-176E5E2B-CCC4-4F01-A087-400AF4DDFBA0-KM-165.5616561823125-GEGEN"/>
	<route edges="fead4-0 fead4-1 fead4-2" color="68,169,49" id="route_017A0A59-5E67-46EB-BD00-AEB97CDFEAD4-KM-25-IN-017A0A59-5E67-46EB-BD00-AEB97CDFEAD4-KM-218.52550007798908-IN"/>
	<route edges="fead4-2 fead4-3 fead4-4 147b1-0 f4591-4-re" color="94,22,239" id="route_017A0A59-5E67-46EB-BD00-AEB97CDFEAD4-KM-218.52550007798908-IN-CF8753A3-59B2-497A-8E3E-84D459EF4591-KM-1622.7448348066494-GEGEN"/>
	<route edges="fead4-2 fead4-3 fead4-4 147b1-0 70f3e-4-re" color="64,184,24" id="route_017A0A59-5E67-46EB-BD00-AEB97CDFEAD4-KM-218.52550007798908-IN-9EE8647B-E6FA-4545-9D2F-708B08870F3E-KM-1673.6383523495206-GEGEN"/>
	<route edges="fead4-4-re fead4-3-re fead4-2-re" color="187,15,37" id="route_017A0A59-5E67-46EB-BD00-AEB97CDFEAD4-KM-238.52550007798908-GEGEN-017A0A59-5E67-46EB-BD00-AEB97CDFEAD4-KM-45-GEGEN"/>
	<route edges="fead4-2-re fead4-1-re fead4-0-re dfba0-4-re" color="46,148,98" id="route_017A0A59-5E67-46EB-BD00-AEB97CDFEAD4-KM-45-GEGEN-176E5E2B-CCC4-4F01-A087-400AF4DDFBA0-KM-165.5616561823125-GEGEN"/>
	<route edges="d46f1-0 d46f1-1 d46f1-2" color="42,115,117" id="route_3D8424AE-F18A-4722-A655-C7E4877D46F1-KM-25-IN-3D8424AE-F18A-4722-A655-C7E4877D46F1-KM-149.7673894741766-IN"/>
	<route edges="d46f1-2 d46f1-3 d46f1-4 b9430-0" color="138,65,129" id="route_3D8424AE-F18A-4722-A655-C7E4877D46F1-KM-149.7673894741766-IN-655FAEB7-3BE7-410C-B68A-2468ABDB9430-KM-25-IN"/>
	<route edges="d46f1-4-re d46f1-3-re d46f1-2-re" color="238,49,234" id="route_3D8424AE-F18A-4722-A655-C7E4877D46F1-KM-169.7673894741766-GEGEN-3D8424AE-F18A-4722-A655-C7E4877D46F1-KM-45-GEGEN"/>
	<route edges="d46f1-2-re d46f1-1-re d46f1-0-re 23b09-0" color="31,7,254" id="route_3D8424AE-F18A-4722-A655-C7E4877D46F1-KM-45-GEGEN-23C866E7-BC9D-4306-88FC-4F6C89123B09-KM-25-IN"/>
	<route edges="d46f1-2-re d46f1-1-re d46f1-0-re fcd75-4-re" color="31,167,114" id="route_3D8424AE-F18A-4722-A655-C7E4877D46F1-KM-45-GEGEN-4ADA6294-F7FE-4EBC-9AD4-65FC0FAFCD75-KM-788.1457216628645-GEGEN"/>
	<route edges="23b09-2-re 23b09-1-re 23b09-0-re d46f1-0" color="130,235,200" id="route_23C866E7-BC9D-4306-88FC-4F6C89123B09-KM-45-GEGEN-3D8424AE-F18A-4722-A655-C7E4877D46F1-KM-25-IN"/>
	<route edges="b9430-0 b9430-1 b9430-2" color="111,108,113" id="route_655FAEB7-3BE7-410C-B68A-2468ABDB9430-KM-25-IN-655FAEB7-3BE7-410C-B68A-2468ABDB9430-KM-664.7733628877847-IN"/>
	<route edges="b9430-2 b9430-3 b9430-4 b15bf-0-re be84c-0" color="34,74,66" id="route_655FAEB7-3BE7-410C-B68A-2468ABDB9430-KM-664.7733628877847-IN-CF1F8F68-71CE-4394-9895-A2A7659BE84C-KM-25-IN"/>
	<route edges="b9430-2 b9430-3 b9430-4 b15bf-0-re 458de-0" color="15,21,214" id="route_655FAEB7-3BE7-410C-B68A-2468ABDB9430-KM-664.7733628877847-IN-73D4F35C-A923-4CC9-8ACC-BA61D32458DE-KM-25-IN"/>
	<route edges="b9430-2 b9430-3 b9430-4 d1cb8-0" color="202,90,243" id="route_655FAEB7-3BE7-410C-B68A-2468ABDB9430-KM-664.7733628877847-IN-1B21468A-FCB6-48DB-BA74-E9BDFB7D1CB8-KM-25-IN"/>
	<route edges="b9430-4-re b9430-3-re b9430-2-re" color="202,60,32" id="route_655FAEB7-3BE7-410C-B68A-2468ABDB9430-KM-684.7733628877847-GEGEN-655FAEB7-3BE7-410C-B68A-2468ABDB9430-KM-45-GEGEN"/>
	<route edges="b9430-2-re b9430-1-re b9430-0-re d46f1-4-re" color="148,92,42" id="route_655FAEB7-3BE7-410C-B68A-2468ABDB9430-KM-45-GEGEN-3D8424AE-F18A-4722-A655-C7E4877D46F1-KM-169.7673894741766-GEGEN"/>
	<route edges="b9430-2-re b9430-1-re b9430-0-re 1627c-0" color="3,46,32" id="route_655FAEB7-3BE7-410C-B68A-2468ABDB9430-KM-45-GEGEN-B00F2EDD-38D6-46B1-B4DA-E9D97F31627C-KM-25-IN"/>
	<route edges="1627c-2-re 1627c-1-re 1627c-0-re b9430-0" color="169,93,167" id="route_B00F2EDD-38D6-46B1-B4DA-E9D97F31627C-KM-45-GEGEN-655FAEB7-3BE7-410C-B68A-2468ABDB9430-KM-25-IN"/>
	<route edges="47c16-0 47c16-1 47c16-2" color="113,56,201" id="route_3B3FD228-7056-4DE8-AC59-E79094847C16-KM-25-IN-3B3FD228-7056-4DE8-AC59-E79094847C16-KM-990.0-IN"/>
	<route edges="47c16-2 47c16-3 47c16-4" color="91,223,122" id="route_3B3FD228-7056-4DE8-AC59-E79094847C16-KM-990.0-IN-3B3FD228-7056-4DE8-AC59-E79094847C16-KM-2092.2203445755-IN"/>
	<route edges="47c16-4 47c16-5 47c16-6 c9872-12-re" color="237,212,254" id="route_3B3FD228-7056-4DE8-AC59-E79094847C16-KM-2092.2203445755-IN-9F54CBBA-82E8-47BE-B182-76092B9C9872-KM-5077.77884586542-GEGEN"/>
	<route edges="47c16-6-re 47c16-5-re 47c16-4-re" color="94,167,157" id="route_3B3FD228-7056-4DE8-AC59-E79094847C16-KM-2112.2203445755-GEGEN-3B3FD228-7056-4DE8-AC59-E79094847C16-KM-1010.0-GEGEN"/>
	<route edges="47c16-4-re 47c16-3-re 47c16-2-re" color="241,188,144" id="route_3B3FD228-7056-4DE8-AC59-E79094847C16-KM-1010.0-GEGEN-3B3FD228-7056-4DE8-AC59-E79094847C16-KM-45-GEGEN"/>
	<route edges="47c16-2-re 47c16-1-re 47c16-0-re 1fb51-0" color="225,29,15" id="route_3B3FD228-7056-4DE8-AC59-E79094847C16-KM-45-GEGEN-0404329D-5088-4262-8827-27A43FE1FB51-KM-25-IN"/>
	<route edges="1fb51-0 1fb51-1 1fb51-2" color="28,231,81" id="route_0404329D-5088-4262-8827-27A43FE1FB51-KM-25-IN-0404329D-5088-4262-8827-27A43FE1FB51-KM-990.0-IN"/>
	<route edges="1fb51-2 1fb51-3 1fb51-4" color="120,111,213" id="route_0404329D-5088-4262-8827-27A43FE1FB51-KM-990.0-IN-0404329D-5088-4262-8827-27A43FE1FB51-KM-2870.8609817292295-IN"/>
	<route edges="1fb51-4 1fb51-5 1fb51-6 3ca43-0 320cf-0" color="100,17,164" id="route_0404329D-5088-4262-8827-27A43FE1FB51-KM-2870.8609817292295-IN-372C8AD0-9535-46E1-9566-2B22CBB320CF-KM-25-IN"/>
	<route edges="1fb51-4 1fb51-5 1fb51-6 3ca43-0 f26f3-0 cd7a9-6-re" color="193,81,222" id="route_0404329D-5088-4262-8827-27A43FE1FB51-KM-2870.8609817292295-IN-DBE5F715-E170-43BE-9EE5-7212BB1CD7A9-KM-2943.580507014078-GEGEN"/>
	<route edges="1fb51-6-re 1fb51-5-re 1fb51-4-re" color="253,134,124" id="route_0404329D-5088-4262-8827-27A43FE1FB51-KM-2890.8609817292295-GEGEN-0404329D-5088-4262-8827-27A43FE1FB51-KM-1010.0-GEGEN"/>
	<route edges="1fb51-4-re 1fb51-3-re 1fb51-2-re" color="45,39,209" id="route_0404329D-5088-4262-8827-27A43FE1FB51-KM-1010.0-GEGEN-0404329D-5088-4262-8827-27A43FE1FB51-KM-45-GEGEN"/>
	<route edges="1fb51-2-re 1fb51-1-re 1fb51-0-re 39cec-0" color="120,41,168" id="route_0404329D-5088-4262-8827-27A43FE1FB51-KM-45-GEGEN-5C043EC7-3684-41DD-8C2C-18924CE39CEC-KM-25-IN"/>
	<route edges="1fb51-2-re 1fb51-1-re 1fb51-0-re 47c16-0" color="69,30,132" id="route_0404329D-5088-4262-8827-27A43FE1FB51-KM-45-GEGEN-3B3FD228-7056-4DE8-AC59-E79094847C16-KM-25-IN"/>
	<route edges="39cec-0 39cec-1 39cec-2" color="164,10,65" id="route_5C043EC7-3684-41DD-8C2C-18924CE39CEC-KM-25-IN-5C043EC7-3684-41DD-8C2C-18924CE39CEC-KM-218.29463403906152-IN"/>
	<route edges="39cec-2 39cec-3 39cec-4 b3aff-4-re" color="77,89,254" id="route_5C043EC7-3684-41DD-8C2C-18924CE39CEC-KM-218.29463403906152-IN-4879A31F-6291-4DD5-9997-74B8037B3AFF-KM-174.05986698348454-GEGEN"/>
	<route edges="39cec-4-re 39cec-3-re 39cec-2-re" color="176,126,251" id="route_5C043EC7-3684-41DD-8C2C-18924CE39CEC-KM-238.29463403906152-GEGEN-5C043EC7-3684-41DD-8C2C-18924CE39CEC-KM-45-GEGEN"/>
	<route edges="39cec-2-re 39cec-1-re 39cec-0-re 1fb51-0" color="63,106,174" id="route_5C043EC7-3684-41DD-8C2C-18924CE39CEC-KM-45-GEGEN-0404329D-5088-4262-8827-27A43FE1FB51-KM-25-IN"/>
	<route edges="35b6d-0 35b6d-1 35b6d-2" color="154,243,253" id="route_88F23E4D-0C40-4487-809C-EEA353435B6D-KM-25-IN-88F23E4D-0C40-4487-809C-EEA353435B6D-KM-234.45431792963808-IN"/>
	<route edges="35b6d-2 35b6d-3 35b6d-4 1d3cc-0" color="46,190,210" id="route_88F23E4D-0C40-4487-809C-EEA353435B6D-KM-234.45431792963808-IN-E75CEB2F-AD44-41D8-B8B8-4BC0FF61D3CC-KM-25-IN"/>
	<route edges="35b6d-4-re 35b6d-3-re 35b6d-2-re" color="210,218,137" id="route_88F23E4D-0C40-4487-809C-EEA353435B6D-KM-254.45431792963808-GEGEN-88F23E4D-0C40-4487-809C-EEA353435B6D-KM-45-GEGEN"/>
	<route edges="35b6d-2-re 35b6d-1-re 35b6d-0-re 36e48-0 45662-0-re 9df94-0-re bd918-4-re" color="12,94,185" id="route_88F23E4D-0C40-4487-809C-EEA353435B6D-KM-45-GEGEN-6EB8B4B5-F65C-4BE7-A4A4-1556956BD918-KM-1189.3495270408275-GEGEN"/>
	<route edges="35b6d-2-re 35b6d-1-re 35b6d-0-re 36e48-0 45662-0-re 9df94-0-re 458de-4-re" color="9,4,145" id="route_88F23E4D-0C40-4487-809C-EEA353435B6D-KM-45-GEGEN-73D4F35C-A923-4CC9-8ACC-BA61D32458DE-KM-1452.8979874733736-GEGEN"/>
	<route edges="35b6d-2-re 35b6d-1-re 35b6d-0-re 36e48-0 be84c-4-re" color="55,22,48" id="route_88F23E4D-0C40-4487-809C-EEA353435B6D-KM-45-GEGEN-CF1F8F68-71CE-4394-9895-A2A7659BE84C-KM-1671.7895552905081-GEGEN"/>
	<route edges="19145-0 19145-1 19145-2" color="174,112,212" id="route_A56E97CD-CE99-4E49-BA77-9459BA919145-KM-25-IN-A56E97CD-CE99-4E49-BA77-9459BA919145-KM-990.0-IN"/>
	<route edges="19145-2 19145-3 19145-4" color="241,17,101" id="route_A56E97CD-CE99-4E49-BA77-9459BA919145-KM-990.0-IN-A56E97CD-CE99-4E49-BA77-9459BA919145-KM-1990.0-IN"/>
	<route edges="19145-4 19145-5 19145-6" color="68,155,176" id="route_A56E97CD-CE99-4E49-BA77-9459BA919145-KM-1990.0-IN-A56E97CD-CE99-4E49-BA77-9459BA919145-KM-2990.0-IN"/>
	<route edges="19145-6 19145-7 19145-8" color="221,96,166" id="route_A56E97CD-CE99-4E49-BA77-9459BA919145-KM-2990.0-IN-A56E97CD-CE99-4E49-BA77-9459BA919145-KM-3990.0-IN"/>
	<route edges="19145-8 19145-9 19145-10" color="49,139,1" id="route_A56E97CD-CE99-4E49-BA77-9459BA919145-KM-3990.0-IN-A56E97CD-CE99-4E49-BA77-9459BA919145-KM-5540.253303703657-IN"/>
	<route edges="19145-10 19145-11 19145-12 5bf39-14-re" color="189,149,61" id="route_A56E97CD-CE99-4E49-BA77-9459BA919145-KM-5540.253303703657-IN-A7D35D1F-285E-4969-9055-FDCA1E95BF39-KM-6384.91403980778-GEGEN"/>
	<route edges="19145-10 19145-11 19145-12 f8f9f-4-re" color="149,220,224" id="route_A56E97CD-CE99-4E49-BA77-9459BA919145-KM-5540.253303703657-IN-0A140F83-81C1-4390-8919-5BC1BF8F8F9F-KM-1346.0689693348354-GEGEN"/>
	<route edges="19145-12-re 19145-11-re 19145-10-re" color="126,212,79" id="route_A56E97CD-CE99-4E49-BA77-9459BA919145-KM-5560.253303703657-GEGEN-A56E97CD-CE99-4E49-BA77-9459BA919145-KM-4010.0-GEGEN"/>
	<route edges="19145-10-re 19145-9-re 19145-8-re" color="82,178,10" id="route_A56E97CD-CE99-4E49-BA77-9459BA919145-KM-4010.0-GEGEN-A56E97CD-CE99-4E49-BA77-9459BA919145-KM-3010.0-GEGEN"/>
	<route edges="19145-8-re 19145-7-re 19145-6-re" color="112,149,128" id="route_A56E97CD-CE99-4E49-BA77-9459BA919145-KM-3010.0-GEGEN-A56E97CD-CE99-4E49-BA77-9459BA919145-KM-2010.0-GEGEN"/>
	<route edges="19145-6-re 19145-5-re 19145-4-re" color="217,216,10" id="route_A56E97CD-CE99-4E49-BA77-9459BA919145-KM-2010.0-GEGEN-A56E97CD-CE99-4E49-BA77-9459BA919145-KM-1010.0-GEGEN"/>
	<route edges="19145-4-re 19145-3-re 19145-2-re" color="147,187,218" id="route_A56E97CD-CE99-4E49-BA77-9459BA919145-KM-1010.0-GEGEN-A56E97CD-CE99-4E49-BA77-9459BA919145-KM-45-GEGEN"/>
	<route edges="19145-2-re 19145-1-re 19145-0-re 36e48-0 45662-0-re 9df94-0-re bd918-4-re" color="203,15,183" id="route_A56E97CD-CE99-4E49-BA77-9459BA919145-KM-45-GEGEN-6EB8B4B5-F65C-4BE7-A4A4-1556956BD918-KM-1189.3495270408275-GEGEN"/>
	<route edges="19145-2-re 19145-1-re 19145-0-re 36e48-0 45662-0-re 9df94-0-re 458de-4-re" color="193,166,96" id="route_A56E97CD-CE99-4E49-BA77-9459BA919145-KM-45-GEGEN-73D4F35C-A923-4CC9-8ACC-BA61D32458DE-KM-1452.8979874733736-GEGEN"/>
	<route edges="19145-2-re 19145-1-re 19145-0-re 36e48-0 be84c-4-re" color="250,127,244" id="route_A56E97CD-CE99-4E49-BA77-9459BA919145-KM-45-GEGEN-CF1F8F68-71CE-4394-9895-A2A7659BE84C-KM-1671.7895552905081-GEGEN"/>
	<route edges="74243-0 74243-1 74243-2" color="1,221,100" id="route_8207AB4A-58B8-4A74-992E-66F7BF274243-KM-25-IN-8207AB4A-58B8-4A74-992E-66F7BF274243-KM-443.81731618508263-IN"/>
	<route edges="74243-2 74243-3 74243-4 9df94-0-re bd918-4-re" color="116,252,151" id="route_8207AB4A-58B8-4A74-992E-66F7BF274243-KM-443.81731618508263-IN-6EB8B4B5-F65C-4BE7-A4A4-1556956BD918-KM-1189.3495270408275-GEGEN"/>
	<route edges="74243-2 74243-3 74243-4 9df94-0-re 458de-4-re" color="241,3,91" id="route_8207AB4A-58B8-4A74-992E-66F7BF274243-KM-443.81731618508263-IN-73D4F35C-A923-4CC9-8ACC-BA61D32458DE-KM-1452.8979874733736-GEGEN"/>
	<route edges="74243-4-re 74243-3-re 74243-2-re" color="1,7,189" id="route_8207AB4A-58B8-4A74-992E-66F7BF274243-KM-463.81731618508263-GEGEN-8207AB4A-58B8-4A74-992E-66F7BF274243-KM-45-GEGEN"/>
	<route edges="74243-2-re 74243-1-re 74243-0-re 1d3cc-0" color="219,165,124" id="route_8207AB4A-58B8-4A74-992E-66F7BF274243-KM-45-GEGEN-E75CEB2F-AD44-41D8-B8B8-4BC0FF61D3CC-KM-25-IN"/>
	<route edges="1d3cc-0 1d3cc-1 1d3cc-2" color="58,33,25" id="route_E75CEB2F-AD44-41D8-B8B8-4BC0FF61D3CC-KM-25-IN-E75CEB2F-AD44-41D8-B8B8-4BC0FF61D3CC-KM-1888.0650690078241-IN"/>
	<route edges="1d3cc-2 1d3cc-3 1d3cc-4 8fea4-0 89199-0 1c5bc-0-re b9479-0 43def-0" color="55,134,17" id="route_E75CEB2F-AD44-41D8-B8B8-4BC0FF61D3CC-KM-1888.0650690078241-IN-E2926B83-51A9-448A-BA02-39F76E943DEF-KM-25-IN"/>
	<route edges="1d3cc-2 1d3cc-3 1d3cc-4 8fea4-0 89199-0 1c5bc-0-re b9479-0 ac82a-0" color="214,20,160" id="route_E75CEB2F-AD44-41D8-B8B8-4BC0FF61D3CC-KM-1888.0650690078241-IN-9CA9F1F6-5BD2-4215-A896-2F760F4AC82A-KM-25-IN"/>
	<route edges="1d3cc-2 1d3cc-3 1d3cc-4 8fea4-0 89199-0 e2659-0" color="97,157,224" id="route_E75CEB2F-AD44-41D8-B8B8-4BC0FF61D3CC-KM-1888.0650690078241-IN-8EFDA1F1-CEF6-4010-8F2D-2301D73E2659-KM-25-IN"/>
	<route edges="1d3cc-4-re 1d3cc-3-re 1d3cc-2-re" color="90,98,69" id="route_E75CEB2F-AD44-41D8-B8B8-4BC0FF61D3CC-KM-1908.0650690078241-GEGEN-E75CEB2F-AD44-41D8-B8B8-4BC0FF61D3CC-KM-45-GEGEN"/>
	<route edges="1d3cc-2-re 1d3cc-1-re 1d3cc-0-re 74243-0" color="197,132,207" id="route_E75CEB2F-AD44-41D8-B8B8-4BC0FF61D3CC-KM-45-GEGEN-8207AB4A-58B8-4A74-992E-66F7BF274243-KM-25-IN"/>
	<route edges="1d3cc-2-re 1d3cc-1-re 1d3cc-0-re 35b6d-4-re" color="235,89,174" id="route_E75CEB2F-AD44-41D8-B8B8-4BC0FF61D3CC-KM-45-GEGEN-88F23E4D-0C40-4487-809C-EEA353435B6D-KM-254.45431792963808-GEGEN"/>
	<route edges="15baa-0 15baa-1 15baa-2" color="137,3,169" id="route_FE80B1CF-2F43-4CF7-924D-2AB5FFD15BAA-KM-25-IN-FE80B1CF-2F43-4CF7-924D-2AB5FFD15BAA-KM-990.0-IN"/>
	<route edges="15baa-2 15baa-3 15baa-4" color="183,167,79" id="route_FE80B1CF-2F43-4CF7-924D-2AB5FFD15BAA-KM-990.0-IN-FE80B1CF-2F43-4CF7-924D-2AB5FFD15BAA-KM-2948.0134948223827-IN"/>
	<route edges="15baa-4 15baa-5 15baa-6 75af3-0" color="234,86,228" id="route_FE80B1CF-2F43-4CF7-924D-2AB5FFD15BAA-KM-2948.0134948223827-IN-9F4FABDE-52A5-4F65-AA62-5DB548475AF3-KM-25-IN"/>
	<route edges="15baa-6-re 15baa-5-re 15baa-4-re" color="244,207,57" id="route_FE80B1CF-2F43-4CF7-924D-2AB5FFD15BAA-KM-2968.0134948223827-GEGEN-FE80B1CF-2F43-4CF7-924D-2AB5FFD15BAA-KM-1010.0-GEGEN"/>
	<route edges="15baa-4-re 15baa-3-re 15baa-2-re" color="42,224,154" id="route_FE80B1CF-2F43-4CF7-924D-2AB5FFD15BAA-KM-1010.0-GEGEN-FE80B1CF-2F43-4CF7-924D-2AB5FFD15BAA-KM-45-GEGEN"/>
	<route edges="15baa-2-re 15baa-1-re 15baa-0-re bf3e8-0 ac82a-4-re" color="66,99,179" id="route_FE80B1CF-2F43-4CF7-924D-2AB5FFD15BAA-KM-45-GEGEN-9CA9F1F6-5BD2-4215-A896-2F760F4AC82A-KM-340.8087986779541-GEGEN"/>
	<route edges="15baa-2-re 15baa-1-re 15baa-0-re bf3e8-0 9c94e-0 854a2-0-re b0704-0 43def-4-re" color="89,53,185" id="route_FE80B1CF-2F43-4CF7-924D-2AB5FFD15BAA-KM-45-GEGEN-E2926B83-51A9-448A-BA02-39F76E943DEF-KM-181.66400492600528-GEGEN"/>
	<route edges="15baa-2-re 15baa-1-re 15baa-0-re bf3e8-0 9c94e-0 854a2-0-re b0704-0 1b676-0 526fc-0" color="218,152,43" id="route_FE80B1CF-2F43-4CF7-924D-2AB5FFD15BAA-KM-45-GEGEN-E0E3414E-51B4-468C-9A51-F6306CF526FC-KM-25-IN"/>
	<route edges="15baa-2-re 15baa-1-re 15baa-0-re bf3e8-0 9c94e-0 854a2-0-re b0704-0 1b676-0 381c0-0 42323-4-re" color="99,207,142" id="route_FE80B1CF-2F43-4CF7-924D-2AB5FFD15BAA-KM-45-GEGEN-92929B6D-EF6D-4A7F-9290-780A06742323-KM-555.7322343251935-GEGEN"/>
	<route edges="15baa-2-re 15baa-1-re 15baa-0-re bf3e8-0 9c94e-0 854a2-0-re b0704-0 1b676-0 381c0-0 658d1-0 bd244-4-re" color="21,52,53" id="route_FE80B1CF-2F43-4CF7-924D-2AB5FFD15BAA-KM-45-GEGEN-CF861962-7D64-4F1D-9CBD-6BEB8B4BD244-KM-395.60889533993935-GEGEN"/>
	<route edges="7018c-0 7018c-1 7018c-2" color="85,61,177" id="route_EEFFD66B-C4F2-4EA2-8408-5E7A5CB7018C-KM-5-IN-EEFFD66B-C4F2-4EA2-8408-5E7A5CB7018C-KM-991.0-IN"/>
	<route edges="7018c-2 7018c-3 7018c-4" color="122,86,102" id="route_EEFFD66B-C4F2-4EA2-8408-5E7A5CB7018C-KM-991.0-IN-EEFFD66B-C4F2-4EA2-8408-5E7A5CB7018C-KM-1991.0-IN"/>
	<route edges="7018c-4 7018c-5 7018c-6" color="243,197,217" id="route_EEFFD66B-C4F2-4EA2-8408-5E7A5CB7018C-KM-1991.0-IN-EEFFD66B-C4F2-4EA2-8408-5E7A5CB7018C-KM-2991.0-IN"/>
	<route edges="7018c-6 7018c-7 7018c-8" color="66,231,241" id="route_EEFFD66B-C4F2-4EA2-8408-5E7A5CB7018C-KM-2991.0-IN-EEFFD66B-C4F2-4EA2-8408-5E7A5CB7018C-KM-3991.0-IN"/>
	<route edges="7018c-8 7018c-9 7018c-10" color="208,88,117" id="route_EEFFD66B-C4F2-4EA2-8408-5E7A5CB7018C-KM-3991.0-IN-EEFFD66B-C4F2-4EA2-8408-5E7A5CB7018C-KM-4991.0-IN"/>
	<route edges="7018c-10 7018c-11 7018c-12" color="19,200,205" id="route_EEFFD66B-C4F2-4EA2-8408-5E7A5CB7018C-KM-4991.0-IN-EEFFD66B-C4F2-4EA2-8408-5E7A5CB7018C-KM-6516.66440127429-IN"/>
	<route edges="7018c-12 7018c-13 7018c-14 c0cb8-0" color="81,107,212" id="route_EEFFD66B-C4F2-4EA2-8408-5E7A5CB7018C-KM-6516.66440127429-IN-B29B3121-DBCF-476F-85F6-2E660CCC0CB8-KM-25-IN"/>
	<route edges="7018c-14-re 7018c-13-re 7018c-12-re" color="219,138,10" id="route_EEFFD66B-C4F2-4EA2-8408-5E7A5CB7018C-KM-6536.66440127429-GEGEN-EEFFD66B-C4F2-4EA2-8408-5E7A5CB7018C-KM-5011.0-GEGEN"/>
	<route edges="7018c-12-re 7018c-11-re 7018c-10-re" color="176,215,167" id="route_EEFFD66B-C4F2-4EA2-8408-5E7A5CB7018C-KM-5011.0-GEGEN-EEFFD66B-C4F2-4EA2-8408-5E7A5CB7018C-KM-4011.0-GEGEN"/>
	<route edges="7018c-10-re 7018c-9-re 7018c-8-re" color="241,84,187" id="route_EEFFD66B-C4F2-4EA2-8408-5E7A5CB7018C-KM-4011.0-GEGEN-EEFFD66B-C4F2-4EA2-8408-5E7A5CB7018C-KM-3011.0-GEGEN"/>
	<route edges="7018c-8-re 7018c-7-re 7018c-6-re" color="153,52,76" id="route_EEFFD66B-C4F2-4EA2-8408-5E7A5CB7018C-KM-3011.0-GEGEN-EEFFD66B-C4F2-4EA2-8408-5E7A5CB7018C-KM-2011.0-GEGEN"/>
	<route edges="7018c-6-re 7018c-5-re 7018c-4-re" color="193,81,210" id="route_EEFFD66B-C4F2-4EA2-8408-5E7A5CB7018C-KM-2011.0-GEGEN-EEFFD66B-C4F2-4EA2-8408-5E7A5CB7018C-KM-1011.0-GEGEN"/>
	<route edges="7018c-4-re 7018c-3-re 7018c-2-re" color="194,164,20" id="route_EEFFD66B-C4F2-4EA2-8408-5E7A5CB7018C-KM-1011.0-GEGEN-EEFFD66B-C4F2-4EA2-8408-5E7A5CB7018C-KM-11.0-GEGEN"/>
	<route edges="c3a24-0 c3a24-1 c3a24-2" color="189,203,6" id="route_30CE0F06-762A-4414-B2E4-61526B8C3A24-KM-25-IN-30CE0F06-762A-4414-B2E4-61526B8C3A24-KM-176.352947606197-IN"/>
	<route edges="c3a24-2 c3a24-3 c3a24-4 1ebba-4-re" color="240,165,21" id="route_30CE0F06-762A-4414-B2E4-61526B8C3A24-KM-176.352947606197-IN-AF19F77A-75D4-4880-9E40-6F161041EBBA-KM-167.7220062676434-GEGEN"/>
	<route edges="c3a24-2 c3a24-3 c3a24-4 b8f37-4-re" color="153,103,40" id="route_30CE0F06-762A-4414-B2E4-61526B8C3A24-KM-176.352947606197-IN-BCD83649-4776-4ABA-A2B8-D4492F4B8F37-KM-758.9329257464503-GEGEN"/>
	<route edges="c3a24-4-re c3a24-3-re c3a24-2-re" color="236,135,26" id="route_30CE0F06-762A-4414-B2E4-61526B8C3A24-KM-196.352947606197-GEGEN-30CE0F06-762A-4414-B2E4-61526B8C3A24-KM-45-GEGEN"/>
	<route edges="c3a24-2-re c3a24-1-re c3a24-0-re 908d4-0 ec980-0-re 9e646-0" color="124,232,207" id="route_30CE0F06-762A-4414-B2E4-61526B8C3A24-KM-45-GEGEN-DC75125B-BB8B-41D4-8EBC-CC70C829E646-KM-25-IN"/>
	<route edges="c3a24-2-re c3a24-1-re c3a24-0-re 908d4-0 3ba44-0" color="0,109,79" id="route_30CE0F06-762A-4414-B2E4-61526B8C3A24-KM-45-GEGEN-9715DAE8-3F52-4B98-9D9C-D7F97713BA44-KM-25-IN"/>
	<route edges="c3a24-2-re c3a24-1-re c3a24-0-re d585e-0 e1a2d-0 06c9f-0 76f33-0" color="223,36,145" id="route_30CE0F06-762A-4414-B2E4-61526B8C3A24-KM-45-GEGEN-A3C195D6-9C1A-48B5-9800-1E6717A76F33-KM-25-IN"/>
	<route edges="c3a24-2-re c3a24-1-re c3a24-0-re d585e-0 e1a2d-0 06c9f-0 471f1-0" color="72,139,161" id="route_30CE0F06-762A-4414-B2E4-61526B8C3A24-KM-45-GEGEN-CF2FB3CC-A03C-4169-8763-6EA60A7471F1-KM-25-IN"/>
	<route edges="c3a24-2-re c3a24-1-re c3a24-0-re d585e-0 e1a2d-0 e9f91-4-re" color="148,197,121" id="route_30CE0F06-762A-4414-B2E4-61526B8C3A24-KM-45-GEGEN-2DA9753B-A26A-4971-8C25-1AE0E45E9F91-KM-1049.2555641663412-GEGEN"/>
	<route edges="c3a24-2-re c3a24-1-re c3a24-0-re d585e-0 bdfd7-0" color="2,156,130" id="route_30CE0F06-762A-4414-B2E4-61526B8C3A24-KM-45-GEGEN-B3E62DBA-8344-4DB4-B885-451450ABDFD7-KM-25-IN"/>
	<route edges="bdfd7-0 bdfd7-1 bdfd7-2" color="14,152,127" id="route_B3E62DBA-8344-4DB4-B885-451450ABDFD7-KM-25-IN-B3E62DBA-8344-4DB4-B885-451450ABDFD7-KM-1057.9134160895494-IN"/>
	<route edges="bdfd7-2 bdfd7-3 bdfd7-4 cc780-0 26428-0 d2cf9-0" color="114,176,23" id="route_B3E62DBA-8344-4DB4-B885-451450ABDFD7-KM-1057.9134160895494-IN-753A569F-F017-4289-BF8B-A0F8CB6D2CF9-KM-25-IN"/>
	<route edges="bdfd7-4-re bdfd7-3-re bdfd7-2-re" color="33,195,191" id="route_B3E62DBA-8344-4DB4-B885-451450ABDFD7-KM-1077.9134160895494-GEGEN-B3E62DBA-8344-4DB4-B885-451450ABDFD7-KM-45-GEGEN"/>
	<route edges="bdfd7-2-re bdfd7-1-re bdfd7-0-re d585e-0-re c3a24-0" color="210,188,114" id="route_B3E62DBA-8344-4DB4-B885-451450ABDFD7-KM-45-GEGEN-30CE0F06-762A-4414-B2E4-61526B8C3A24-KM-25-IN"/>
	<route edges="e9f91-0 e9f91-1 e9f91-2" color="7,161,78" id="route_2DA9753B-A26A-4971-8C25-1AE0E45E9F91-KM-25-IN-2DA9753B-A26A-4971-8C25-1AE0E45E9F91-KM-1029.2555641663412-IN"/>
	<route edges="e9f91-2 e9f91-3 e9f91-4 e1a2d-0-re d585e-0-re c3a24-0" color="36,251,247" id="route_2DA9753B-A26A-4971-8C25-1AE0E45E9F91-KM-1029.2555641663412-IN-30CE0F06-762A-4414-B2E4-61526B8C3A24-KM-25-IN"/>
	<route edges="e9f91-4-re e9f91-3-re e9f91-2-re" color="98,7,194" id="route_2DA9753B-A26A-4971-8C25-1AE0E45E9F91-KM-1049.2555641663412-GEGEN-2DA9753B-A26A-4971-8C25-1AE0E45E9F91-KM-45-GEGEN"/>
	<route edges="e9f91-2-re e9f91-1-re e9f91-0-re 26428-0 d2cf9-0" color="250,86,115" id="route_2DA9753B-A26A-4971-8C25-1AE0E45E9F91-KM-45-GEGEN-753A569F-F017-4289-BF8B-A0F8CB6D2CF9-KM-25-IN"/>
	<route edges="d2cf9-0 d2cf9-1 d2cf9-2" color="65,101,128" id="route_753A569F-F017-4289-BF8B-A0F8CB6D2CF9-KM-25-IN-753A569F-F017-4289-BF8B-A0F8CB6D2CF9-KM-435.0663329602517-IN"/>
	<route edges="d2cf9-2 d2cf9-3 d2cf9-4 b5872-0 72421-0" color="107,135,64" id="route_753A569F-F017-4289-BF8B-A0F8CB6D2CF9-KM-435.0663329602517-IN-2753E392-9AD5-4C5D-B400-6723E9E72421-KM-25-IN"/>
	<route edges="d2cf9-2 d2cf9-3 d2cf9-4 f9709-0 a60aa-0" color="107,251,75" id="route_753A569F-F017-4289-BF8B-A0F8CB6D2CF9-KM-435.0663329602517-IN-B5FEC6AB-2448-4BAE-AFE1-2572AB1A60AA-KM-25-IN"/>
	<route edges="d2cf9-4-re d2cf9-3-re d2cf9-2-re" color="185,70,193" id="route_753A569F-F017-4289-BF8B-A0F8CB6D2CF9-KM-455.0663329602517-GEGEN-753A569F-F017-4289-BF8B-A0F8CB6D2CF9-KM-45-GEGEN"/>
	<route edges="d2cf9-2-re d2cf9-1-re d2cf9-0-re 26428-0-re cc780-0-re 8c7f8-0 5ab04-4-re" color="186,82,153" id="route_753A569F-F017-4289-BF8B-A0F8CB6D2CF9-KM-45-GEGEN-7500AFF4-A004-4183-978A-7E09BE65AB04-KM-948.2641741372947-GEGEN"/>
	<route edges="d2cf9-2-re d2cf9-1-re d2cf9-0-re 26428-0-re cc780-0-re bdfd7-4-re" color="231,251,221" id="route_753A569F-F017-4289-BF8B-A0F8CB6D2CF9-KM-45-GEGEN-B3E62DBA-8344-4DB4-B885-451450ABDFD7-KM-1077.9134160895494-GEGEN"/>
	<route edges="d2cf9-2-re d2cf9-1-re d2cf9-0-re 26428-0-re e9f91-0" color="122,248,156" id="route_753A569F-F017-4289-BF8B-A0F8CB6D2CF9-KM-45-GEGEN-2DA9753B-A26A-4971-8C25-1AE0E45E9F91-KM-25-IN"/>
	<route edges="d2cf9-2-re d2cf9-1-re d2cf9-0-re 20425-0 471f1-4-re" color="218,176,43" id="route_753A569F-F017-4289-BF8B-A0F8CB6D2CF9-KM-45-GEGEN-CF2FB3CC-A03C-4169-8763-6EA60A7471F1-KM-914.5519844172353-GEGEN"/>
	<route edges="d2cf9-2-re d2cf9-1-re d2cf9-0-re 20425-0 5f150-0 76f33-4-re" color="56,254,17" id="route_753A569F-F017-4289-BF8B-A0F8CB6D2CF9-KM-45-GEGEN-A3C195D6-9C1A-48B5-9800-1E6717A76F33-KM-890.2218839305359-GEGEN"/>
	<route edges="d2cf9-2-re d2cf9-1-re d2cf9-0-re 20425-0 5f150-0 352c2-0-re 2c995-0 3ba44-4-re" color="104,166,219" id="route_753A569F-F017-4289-BF8B-A0F8CB6D2CF9-KM-45-GEGEN-9715DAE8-3F52-4B98-9D9C-D7F97713BA44-KM-914.6100386400316-GEGEN"/>
	<route edges="d2cf9-2-re d2cf9-1-re d2cf9-0-re 20425-0 5f150-0 352c2-0-re 2c995-0 82ff1-4-re" color="187,97,95" id="route_753A569F-F017-4289-BF8B-A0F8CB6D2CF9-KM-45-GEGEN-503E8235-4C37-439D-AAB4-D2E62E782FF1-KM-274.393868483975-GEGEN"/>
	<route edges="a60aa-0 a60aa-1 a60aa-2" color="175,59,14" id="route_B5FEC6AB-2448-4BAE-AFE1-2572AB1A60AA-KM-25-IN-B5FEC6AB-2448-4BAE-AFE1-2572AB1A60AA-KM-964.5542787261779-IN"/>
	<route edges="a60aa-2 a60aa-3 a60aa-4 dddba-0 38738-0 ab3de-0 dd95e-0 45e9f-0-re 9df25-0-re 63da1-4-re" color="99,93,50" id="route_B5FEC6AB-2448-4BAE-AFE1-2572AB1A60AA-KM-964.5542787261779-IN-4A6F0BA8-697F-4DAD-9B55-28CCAC563DA1-KM-1119.325048676234-GEGEN"/>
	<route edges="a60aa-2 a60aa-3 a60aa-4 dddba-0 38738-0 ab3de-0 dd95e-0 45e9f-0-re 9df25-0-re 79892-4-re" color="136,87,65" id="route_B5FEC6AB-2448-4BAE-AFE1-2572AB1A60AA-KM-964.5542787261779-IN-DD33BFF6-FEB1-491B-AA17-2A596AC79892-KM-1114.453612915927-GEGEN"/>
	<route edges="a60aa-2 a60aa-3 a60aa-4 dddba-0 38738-0 ab3de-0 dd95e-0 45e9f-0-re c8e80-0" color="224,252,99" id="route_B5FEC6AB-2448-4BAE-AFE1-2572AB1A60AA-KM-964.5542787261779-IN-A1AA5E93-6CA0-4871-AE21-507A957C8E80-KM-25-IN"/>
	<route edges="a60aa-2 a60aa-3 a60aa-4 dddba-0 38738-0 ab3de-0 4d3c0-0-re 79d84-0 c2596-0 9cb65-4-re" color="150,166,14" id="route_B5FEC6AB-2448-4BAE-AFE1-2572AB1A60AA-KM-964.5542787261779-IN-EEB08CF5-034A-4AF2-B688-CCF4F6D9CB65-KM-1076.2964162094613-GEGEN"/>
	<route edges="a60aa-2 a60aa-3 a60aa-4 dddba-0 38738-0 ab3de-0 4d3c0-0-re 79d84-0 c2596-0 0f620-4-re" color="138,124,6" id="route_B5FEC6AB-2448-4BAE-AFE1-2572AB1A60AA-KM-964.5542787261779-IN-38DFD28C-4033-4DAA-AD11-D6C59630F620-KM-1134.197490248513-GEGEN"/>
	<route edges="a60aa-2 a60aa-3 a60aa-4 dddba-0 38738-0 ab3de-0 4d3c0-0-re 79d84-0 3f41a-0" color="37,70,228" id="route_B5FEC6AB-2448-4BAE-AFE1-2572AB1A60AA-KM-964.5542787261779-IN-A1D6E848-5DAD-42AA-8777-889FABE3F41A-KM-25-IN"/>