<edges>
<!-- Track 0f623454-1b27-48ee-94f1-c34bd2df1248 -->
<edge id="f1248-0" from="71999" to="0f623454-1b27-48ee-94f1-c34bd2df1248-km-25-in" shape="-2502198.1259712474,3467432.6135298666 -2502222.669270449,3467437.370258187" priority="-1" numLanes="1" speed="110.0" allow="rail rail_electric" spreadType="center" />
<edge id="f1248-0-re" from="0f623454-1b27-48ee-94f1-c34bd2df1248-km-25-in" to="71999" shape="-2502222.669270449,3467437.370258187 -2502198.1259712474,3467432.6135298666" priority="-1" numLanes="1" speed="110.0" allow="rail rail_electric" spreadType="center" />
<!-- Track 0f623454-1b27-48ee-94f1-c34bd2df1248 -->
<edge id="f1248-1" from="0f623454-1b27-48ee-94f1-c34bd2df1248-km-25-in" to="0f623454-1b27-48ee-94f1-c34bd2df1248-km-45-gegen" shape="-2502222.669270449,3467437.370258187 -2502242.30390981,3467441.1756408433" priority="-1" numLanes="1" speed="110.0" allow="rail rail_electric" spreadType="center" />
<edge id="f1248-1-re" from="0f623454-1b27-48ee-94f1-c34bd2df1248-km-45-gegen" to="0f623454-1b27-48ee-94f1-c34bd2df1248-km-25-in" shape="-2502242.30390981,3467441.1756408433 -2502222.669270449,3467437.370258187" priority="-1" numLanes="1" speed="110.0" allow="rail rail_electric" spreadType="center" />
<!-- Track 0f623454-1b27-48ee-94f1-c34bd2df1248 -->
<edge id="f1248-2" from="0f623454-1b27-48ee-94f1-c34bd2df1248-km-45-gegen" to="0f623454-1b27-48ee-94f1-c34bd2df1248-km-301.5762856547864-in" shape="-2502242.30390981,3467441.1756408433 -2502326.879854113,3467457.567275325 -2502493.9023487107,3467491.459708974" priority="-1" numLanes="1" speed="110.0" allow="rail rail_electric" spreadType="center" />
<edge id="f1248-2-re" from="0f623454-1b27-48ee-94f1-c34bd2df1248-km-301.5762856547864-in" to="0f623454-1b27-48ee-94f1-c34bd2df1248-km-45-gegen" shape="-2502493.9023487107,3467491.459708974 -2502326.879854113,3467457.567275325 -2502242.30390981,3467441.1756408433" priority="-1" numLanes="1" speed="110.0" allow="rail rail_electric" spreadType="center" />
<!-- Track 0f623454-1b27-48ee-94f1-c34bd2df1248 -->
<edge id="f1248-3" from="0f623454-1b27-48ee-94f1-c34bd2df1248-km-301.5762856547864-in" to="0f623454-1b27-48ee-94f1-c34bd2df1248-km-321.5762856547864-gegen" shape="-2502493.9023487107,3467491.459708974 -2502513.502873321,3467495.4370743074" priority="-1" numLanes="1" speed="110.0" allow="rail rail_electric" spreadType="center" />
<edge id="f1248-3-re" from="0f623454-1b27-48ee-94f1-c34bd2df1248-km-321.5762856547864-gegen" to="0f623454-1b27-48ee-94f1-c34bd2df1248-km-301.5762856547864-in" shape="-2502513.502873321,3467495.4370743074 -2502493.9023487107,3467491.459708974" priority="-1" numLanes="1" speed="110.0" allow="rail rail_electric" spreadType="center" />
<!-- Track 0f623454-1b27-48ee-94f1-c34bd2df1248 -->
<edge id="f1248-4" from="0f623454-1b27-48ee-94f1-c34bd2df1248-km-321.5762856547864-gegen" to="0bb62" shape="-2502513.502873321,3467495.4370743074 -2502538.003529084,3467500.4087809734" priority="-1" numLanes="1" speed="110.0" allow="rail rail_electric" spreadType="center" />
<edge id="f1248-4-re" from="0bb62" to="0f623454-1b27-48ee-94f1-c34bd2df1248-km-321.5762856547864-gegen" shape="-2502538.003529084,3467500.4087809734 -2502513.502873321,3467495.4370743074" priority="-1" numLanes="1" speed="110.0" allow="rail rail_electric" spreadType="center" />
<!-- Track 176e5e2b-ccc4-4f01-a087-400af4ddfba0 -->
<edge id="dfba0-0" from="71999" to="176e5e2b-ccc4-4f01-a087-400af4ddfba0-km-25-in" shape="-2502198.1259712474,3467432.6135298666 -2502173.6116686147,3467427.7095553116" priority="-1" numLanes="1" speed="110.0" allow="rail rail_electric" spreadType="center" />
<edge id="dfba0-0-re" from="176e5e2b-ccc4-4f01-a087-400af4ddfba0-km-25-in" to="71999" shape="-2502173.6116686147,3467427.7095553116 -2502198.1259712474,3467432.6135298666" priority="-1" numLanes="1" speed="110.0" allow="rail rail_electric" spreadType="center" />
<!-- Track 176e5e2b-ccc4-4f01-a087-400af4ddfba0 -->
<edge id="dfba0-1" from="176e5e2b-ccc4-4f01-a087-400af4ddfba0-km-25-in" to="176e5e2b-ccc4-4f01-a087-400af4ddfba0-km-45-gegen" shape="-2502173.6116686147,3467427.7095553116 -2502154.000226509,3467423.7863756674" priority="-1" numLanes="1" speed="110.0" allow="rail rail_electric" spreadType="center" />
<edge id="dfba0-1-re" from="176e5e2b-ccc4-4f01-a087-400af4ddfba0-km-45-gegen" to="176e5e2b-ccc4-4f01-a087-400af4ddfba0-km-25-in" shape="-2502154.000226509,3467423.7863756674 -2502173.6116686147,3467427.7095553116" priority="-1" numLanes="1" speed="110.0" allow="rail rail_electric" spreadType="center" />
<!-- Track 176e5e2b-ccc4-4f01-a087-400af4ddfba0 -->
<edge id="dfba0-2" from="176e5e2b-ccc4-4f01-a087-400af4ddfba0-km-45-gegen" to="176e5e2b-ccc4-4f01-a087-400af4ddfba0-km-145.5616561823125-in" shape="-2502154.000226509,3467423.7863756674 -2502055.392271593,3467404.0603035414" priority="-1" numLanes="1" speed="110.0" allow="rail rail_electric" spreadType="center" />
<edge id="dfba0-2-re" from="176e5e2b-ccc4-4f01-a087-400af4ddfba0-km-145.5616561823125-in" to="176e5e2b-ccc4-4f01-a087-400af4ddfba0-km-45-gegen" shape="-2502055.392271593,3467404.0603035414 -2502154.000226509,3467423.7863756674" priority="-1" numLanes="1" speed="110.0" allow="rail rail_electric" spreadType="center" />
<!-- Track 176e5e2b-ccc4-4f01-a087-400af4ddfba0 -->
<edge id="dfba0-3" from="176e5e2b-ccc4-4f01-a087-400af4ddfba0-km-145.5616561823125-in" to="176e5e2b-ccc4-4f01-a087-400af4ddfba0-km-165.5616561823125-gegen" shape="-2502055.392271593,3467404.0603035414 -2502035.7808294874,3467400.137123897" priority="-1" numLanes="1" speed="110.0" allow="rail rail_electric" spreadType="center" />
<edge id="dfba0-3-re" from="176e5e2b-ccc4-4f01-a087-400af4ddfba0-km-165.5616561823125-gegen" to="176e5e2b-ccc4-4f01-a087-400af4ddfba0-km-145.5616561823125-in" shape="-2502035.7808294874,3467400.137123897 -2502055.392271593,3467404.0603035414" priority="-1" numLanes="1" speed="110.0" allow="rail rail_electric" spreadType="center" />
<!-- Track 176e5e2b-ccc4-4f01-a087-400af4ddfba0 -->
<edge id="dfba0-4" from="176e5e2b-ccc4-4f01-a087-400af4ddfba0-km-165.5616561823125-gegen" to="4b697" shape="-2502035.7808294874,3467400.137123897 -2502011.2665268546,3467395.2331493422" priority="-1" numLanes="1" speed="110.0" allow="rail rail_electric" spreadType="center" />
<edge id="dfba0-4-re" from="4b697" to="176e5e2b-ccc4-4f01-a087-400af4ddfba0-km-165.5616561823125-gegen" shape="-2502011.2665268546,3467395.2331493422 -2502035.7808294874,3467400.137123897" priority="-1" numLanes="1" speed="110.0" allow="rail rail_electric" spreadType="center" />
<!-- Track 2f4200bc-4b12-4804-9862-e819f6190018 -->
<edge id="90018-0" from="71999" to="2f4200bc-4b12-4804-9862-e819f6190018-km-25-in" shape="-2502198.1259712474,3467432.6135298666 -2502173.3051357637,3467429.6258675884" priority="-1" numLanes="1" speed="110.0" allow="rail rail_electric" spreadType="center" />
<edge id="90018-0-re" from="2f4200bc-4b12-4804-9862-e819f6190018-km-25-in" to="71999" shape="-2502173.3051357637,3467429.6258675884 -2502198.1259712474,3467432.6135298666" priority="-1" numLanes="1" speed="110.0" allow="rail rail_electric" spreadType="center" />
<!-- Track 2f4200bc-4b12-4804-9862-e819f6190018 -->
<edge id="90018-1" from="2f4200bc-4b12-4804-9862-e819f6190018-km-25-in" to="2f4200bc-4b12-4804-9862-e819f6190018-km-45-gegen" shape="-2502173.3051357637,3467429.6258675884 -2502153.4484673766,3467427.235737766" priority="-1" numLanes="1" speed="110.0" allow="rail rail_electric" spreadType="center" />
<edge id="90018-1-re" from="2f4200bc-4b12-4804-9862-e819f6190018-km-45-gegen" to="2f4200bc-4b12-4804-9862-e819f6190018-km-25-in" shape="-2502153.4484673766,3467427.235737766 -2502173.3051357637,3467429.6258675884" priority="-1" numLanes="1" speed="110.0" allow="rail rail_electric" spreadType="center" />
<!-- Track 2f4200bc-4b12-4804-9862-e819f6190018 -->
<edge id="90018-2" from="2f4200bc-4b12-4804-9862-e819f6190018-km-45-gegen" to="2f4200bc-4b12-4804-9862-e819f6190018-km-832.2588211144425-in" shape="-2502153.4484673766,3467427.235737766 -2501986.5440240223,3467407.1455957647 -2501941.394594235,3467406.669230707 -2501900.14020605,3467408.084832847 -2501830.2628213717,3467412.3299855366 -2501757.781161777,3467419.529616246 -2501699.9119592384,3467418.698338378 -2501637.2374989176,3467415.157012349 -2501580.245985288,3467407.526348047 -2501372.6098940773,3467366.1183687863" priority="-1" numLanes="1" speed="110.0" allow="rail rail_electric" spreadType="center" />
<edge id="90018-2-re" from="2f4200bc-4b12-4804-9862-e819f6190018-km-832.2588211144425-in" to="2f4200bc-4b12-4804-9862-e819f6190018-km-45-gegen" shape="-2501372.6098940773,3467366.1183687863 -2501580.245985288,3467407.526348047 -2501637.2374989176,3467415.157012349 -2501699.9119592384,3467418.698338378 -2501757.781161777,3467419.529616246 -2501830.2628213717,3467412.3299855366 -2501900.14020605,3467408.084832847 -2501941.394594235,3467406.669230707 -2501986.5440240223,3467407.1455957647 -2502153.4484673766,3467427.235737766" priority="-1" numLanes="1" speed="110.0" allow="rail rail_electric" spreadType="center" />
<!-- Track 2f4200bc-4b12-4804-9862-e819f6190018 -->
<edge id="90018-3" from="2f4200bc-4b12-4804-9862-e819f6190018-km-832.2588211144425-in" to="2f4200bc-4b12-4804-9862-e819f6190018-km-852.2588211144425-gegen" shape="-2501372.6098940773,3467366.1183687863 -2501352.99611748,3467362.206877052" priority="-1" numLanes="1" speed="110.0" allow="rail rail_electric" spreadType="center" />
<edge id="90018-3-re" from="2f4200bc-4b12-4804-9862-e819f6190018-km-852.2588211144425-gegen" to="2f4200bc-4b12-4804-9862-e819f6190018-km-832.2588211144425-in" shape="-2501352.99611748,3467362.206877052 -2501372.6098940773,3467366.1183687863" priority="-1" numLanes="1" speed="110.0" allow="rail rail_electric" spreadType="center" />
<!-- Track 2f4200bc-4b12-4804-9862-e819f6190018 -->
<edge id="90018-4" from="2f4200bc-4b12-4804-9862-e819f6190018-km-852.2588211144425-gegen" to="4ecce" shape="-2501352.99611748,3467362.206877052 -2501328.4788967334,3467357.3175123837" priority="-1" numLanes="1" speed="110.0" allow="rail rail_electric" spreadType="center" />
<edge id="90018-4-re" from="4ecce" to="2f4200bc-4b12-4804-9862-e819f6190018-km-852.2588211144425-gegen" shape="-2501328.4788967334,3467357.3175123837 -2501352.99611748,3467362.206877052" priority="-1" numLanes="1" speed="110.0" allow="rail rail_electric" spreadType="center" />
<!-- Track 4ada6294-f7fe-4ebc-9ad4-65fc0fafcd75 -->
<edge id="fcd75-0" from="4b697" to="4ada6294-f7fe-4ebc-9ad4-65fc0fafcd75-km-25-in" shape="-2502011.2665268546,3467395.2331493422 -2501986.4846162554,3467391.938167242" priority="-1" numLanes="1" speed="110.0" allow="rail rail_electric" spreadType="center" />
<edge id="fcd75-0-re" from="4ada6294-f7fe-4ebc-9ad4-65fc0fafcd75-km-25-in" to="4b697" shape="-2501986.4846162554,3467391.938167242 -2502011.2665268546,3467395.2331493422" priority="-1" numLanes="1" speed="110.0" allow="rail rail_electric" spreadType="center" />
<!-- Track 4ada6294-f7fe-4ebc-9ad4-65fc0fafcd75 -->
<edge id="fcd75-1" from="4ada6294-f7fe-4ebc-9ad4-65fc0fafcd75-km-25-in" to="4ada6294-f7fe-4ebc-9ad4-65fc0fafcd75-km-45-gegen" shape="-2501986.4846162554,3467391.938167242 -2501966.6590877757,3467389.3021815615" priority="-1" numLanes="1" speed="110.0" allow="rail rail_electric" spreadType="center" />
<edge id="fcd75-1-re" from="4ada6294-f7fe-4ebc-9ad4-65fc0fafcd75-km-45-gegen" to="4ada6294-f7fe-4ebc-9ad4-65fc0fafcd75-km-25-in" shape="-2501966.6590877757,3467389.3021815615 -2501986.4846162554,3467391.938167242" priority="-1" numLanes="1" speed="110.0" allow="rail rail_electric" spreadType="center" />
<!-- Track 4ada6294-f7fe-4ebc-9ad4-65fc0fafcd75 -->
<edge id="fcd75-2" from="4ada6294-f7fe-4ebc-9ad4-65fc0fafcd75-km-45-gegen" to="4ada6294-f7fe-4ebc-9ad4-65fc0fafcd75-km-768.1457216628645-in" shape="-2501966.6590877757,3467389.3021815615 -2501902.187891895,3467380.730145294 -2501866.152929621,3467378.21362713 -2501673.0765554016,3467367.3538590707 -2501592.416926997,3467359.140942909 -2501551.447303158,3467353.074182581 -2501505.253120913,3467345.780980693 -2501250.8801331185,3467295.249607361" priority="-1" numLanes="1" speed="110.0" allow="rail rail_electric" spreadType="center" />
<edge id="fcd75-2-re" from="4ada6294-f7fe-4ebc-9ad4-65fc0fafcd75-km-768.1457216628645-in" to="4ada6294-f7fe-4ebc-9ad4-65fc0fafcd75-km-45-gegen" shape="-2501250.8801331185,3467295.249607361 -2501505.253120913,3467345.780980693 -2501551.447303158,3467353.074182581 -2501592.416926997,3467359.140942909 -2501673.0765554016,3467367.3538590707 -2501866.152929621,3467378.21362713 -2501902.187891895,3467380.730145294 -2501966.6590877757,3467389.3021815615" priority="-1" numLanes="1" speed="110.0" allow="rail rail_electric" spreadType="center" />
<!-- Track 4ada6294-f7fe-4ebc-9ad4-65fc0fafcd75 -->
<edge id="fcd75-3" from="4ada6294-f7fe-4ebc-9ad4-65fc0fafcd75-km-768.1457216628645-in" to="4ada6294-f7fe-4ebc-9ad4-65fc0fafcd75-km-788.1457216628645-gegen" shape="-2501250.8801331185,3467295.249607361 -2501231.263445984,3467291.352738634" priority="-1" numLanes="1" speed="110.0" allow="rail rail_electric" spreadType="center" />
<edge id="fcd75-3-re" from="4ada6294-f7fe-4ebc-9ad4-65fc0fafcd75-km-788.1457216628645-gegen" to="4ada6294-f7fe-4ebc-9ad4-65fc0fafcd75-km-768.1457216628645-in" shape="-2501231.263445984,3467291.352738634 -2501250.8801331185,3467295.249607361" priority="-1" numLanes="1" speed="110.0" allow="rail rail_electric" spreadType="center" />
<!-- Track 4ada6294-f7fe-4ebc-9ad4-65fc0fafcd75 -->
<edge id="fcd75-4" from="4ada6294-f7fe-4ebc-9ad4-65fc0fafcd75-km-788.1457216628645-gegen" to="1a3eb" shape="-2501231.263445984,3467291.352738634 -2501206.7425870663,3467286.4816527255" priority="-1" numLanes="1" speed="110.0" allow="rail rail_electric" spreadType="center" />
<edge id="fcd75-4-re" from="1a3eb" to="4ada6294-f7fe-4ebc-9ad4-65fc0fafcd75-km-788.1457216628645-gegen" shape="-2501206.7425870663,3467286.4816527255 -2501231.263445984,3467291.352738634" priority="-1" numLanes="1" speed="110.0" allow="rail rail_electric" spreadType="center" />
<!-- Track 017a0a59-5e67-46eb-bd00-aeb97cdfead4 -->
<edge id="fead4-0" from="4b697" to="017a0a59-5e67-46eb-bd00-aeb97cdfead4-km-25-in" shape="-2502011.2665268546,3467395.2331493422 -2501986.867727038,3467389.7835101327" priority="-1" numLanes="1" speed="110.0" allow="rail rail_electric" spreadType="center" />
<edge id="fead4-0-re" from="017a0a59-5e67-46eb-bd00-aeb97cdfead4-km-25-in" to="4b697" shape="-2501986.867727038,3467389.7835101327 -2502011.2665268546,3467395.2331493422" priority="-1" numLanes="1" speed="110.0" allow="rail rail_electric" spreadType="center" />
<!-- Track 017a0a59-5e67-46eb-bd00-aeb97cdfead4 -->
<edge id="fead4-1" from="017a0a59-5e67-46eb-bd00-aeb97cdfead4-km-25-in" to="017a0a59-5e67-46eb-bd00-aeb97cdfead4-km-45-gegen" shape="-2501986.867727038,3467389.7835101327 -2501967.348687185,3467385.4237987646" priority="-1" numLanes="1" speed="110.0" allow="rail rail_electric" spreadType="center" />
<edge id="fead4-1-re" from="017a0a59-5e67-46eb-bd00-aeb97cdfead4-km-45-gegen" to="017a0a59-5e67-46eb-bd00-aeb97cdfead4-km-25-in" shape="-2501967.348687185,3467385.4237987646 -2501986.867727038,3467389.7835101327" priority="-1" numLanes="1" speed="110.0" allow="rail rail_electric" spreadType="center" />
<!-- Track 017a0a59-5e67-46eb-bd00-aeb97cdfead4 -->
<edge id="fead4-2" from="017a0a59-5e67-46eb-bd00-aeb97cdfead4-km-45-gegen" to="017a0a59-5e67-46eb-bd00-aeb97cdfead4-km-218.52550007798908-in" shape="-2501967.348687185,3467385.4237987646 -2501807.904326056,3467349.8108076043 -2501798.030984935,3467347.447093896" priority="-1" numLanes="1" speed="110.0" allow="rail rail_electric" spreadType="center" />
<edge id="fead4-2-re" from="017a0a59-5e67-46eb-bd00-aeb97cdfead4-km-218.52550007798908-in" to="017a0a59-5e67-46eb-bd00-aeb97cdfead4-km-45-gegen" shape="-2501798.030984935,3467347.447093896 -2501807.904326056,3467349.8108076043 -2501967.348687185,3467385.4237987646" priority="-1" numLanes="1" speed="110.0" allow="rail rail_electric" spreadType="center" />
<!-- Track 017a0a59-5e67-46eb-bd00-aeb97cdfead4 -->
<edge id="fead4-3" from="017a0a59-5e67-46eb-bd00-aeb97cdfead4-km-218.52550007798908-in" to="017a0a59-5e67-46eb-bd00-aeb97cdfead4-km-238.52550007798908-gegen" shape="-2501798.030984935,3467347.447093896 -2501778.5806097006,3467342.790603453" priority="-1" numLanes="1" speed="110.0" allow="rail rail_electric" spreadType="center" />
<edge id="fead4-3-re" from="017a0a59-5e67-46eb-bd00-aeb97cdfead4-km-238.52550007798908-gegen" to="017a0a59-5e67-46eb-bd00-aeb97cdfead4-km-218.52550007798908-in" shape="-2501778.5806097006,3467342.790603453 -2501798.030984935,3467347.447093896" priority="-1" numLanes="1" speed="110.0" allow="rail rail_electric" spreadType="center" />
<!-- Track 017a0a59-5e67-46eb-bd00-aeb97cdfead4 -->
<edge id="fead4-4" from="017a0a59-5e67-46eb-bd00-aeb97cdfead4-km-238.52550007798908-gegen" to="4a137" shape="-2501778.5806097006,3467342.790603453 -2501754.2676406577,3467336.9699903987" priority="-1" numLanes="1" speed="110.0" allow="rail rail_electric" spreadType="center" />
<edge id="fead4-4-re" from="4a137" to="017a0a59-5e67-46eb-bd00-aeb97cdfead4-km-238.52550007798908-gegen" shape="-2501754.2676406577,3467336.9699903987 -2501778.5806097006,3467342.790603453" priority="-1" numLanes="1" speed="110.0" allow="rail rail_electric" spreadType="center" />
<!-- Track 3d8424ae-f18a-4722-a655-c7e4877d46f1 -->
<edge id="d46f1-0" from="1a3eb" to="3d8424ae-f18a-4722-a655-c7e4877d46f1-km-25-in" shape="-2501206.7425870663,3467286.4816527255 -2501182.2386736786,3467281.5260267616" priority="-1" numLanes="1" speed="110.0" allow="rail rail_electric" spreadType="center" />
<edge id="d46f1-0-re" from="3d8424ae-f18a-4722-a655-c7e4877d46f1-km-25-in" to="1a3eb" shape="-2501182.2386736786,3467281.5260267616 -2501206.7425870663,3467286.4816527255" priority="-1" numLanes="1" speed="110.0" allow="rail rail_electric" spreadType="center" />
<!-- Track 3d8424ae-f18a-4722-a655-c7e4877d46f1 -->
<edge id="d46f1-1" from="3d8424ae-f18a-4722-a655-c7e4877d46f1-km-25-in" to="3d8424ae-f18a-4722-a655-c7e4877d46f1-km-45-gegen" shape="-2501182.2386736786,3467281.5260267616 -2501162.6355429688,3467277.5615259903" priority="-1" numLanes="1" speed="110.0" allow="rail rail_electric" spreadType="center" />
<edge id="d46f1-1-re" from="3d8424ae-f18a-4722-a655-c7e4877d46f1-km-45-gegen" to="3d8424ae-f18a-4722-a655-c7e4877d46f1-km-25-in" shape="-2501162.6355429688,3467277.5615259903 -2501182.2386736786,3467281.5260267616" priority="-1" numLanes="1" speed="110.0" allow="rail rail_electric" spreadType="center" />
<!-- Track 3d8424ae-f18a-4722-a655-c7e4877d46f1 -->
<edge id="d46f1-2" from="3d8424ae-f18a-4722-a655-c7e4877d46f1-km-45-gegen" to="3d8424ae-f18a-4722-a655-c7e4877d46f1-km-149.7673894741766-in" shape="-2501162.6355429688,3467277.5615259903 -2501059.947101468,3467256.7940061716" priority="-1" numLanes="1" speed="110.0" allow="rail rail_electric" spreadType="center" />
<edge id="d46f1-2-re" from="3d8424ae-f18a-4722-a655-c7e4877d46f1-km-149.7673894741766-in" to="3d8424ae-f18a-4722-a655-c7e4877d46f1-km-45-gegen" shape="-2501059.947101468,3467256.7940061716 -2501162.6355429688,3467277.5615259903" priority="-1" numLanes="1" speed="110.0" allow="rail rail_electric" spreadType="center" />
<!-- Track 3d8424ae-f18a-4722-a655-c7e4877d46f1 -->
<edge id="d46f1-3" from="3d8424ae-f18a-4722-a655-c7e4877d46f1-km-149.7673894741766-in" to="3d8424ae-f18a-4722-a655-c7e4877d46f1-km-169.7673894741766-gegen" shape="-2501059.947101468,3467256.7940061716 -2501040.343970758,3467252.8295054003" priority="-1" numLanes="1" speed="110.0" allow="rail rail_electric" spreadType="center" />
<edge id="d46f1-3-re" from="3d8424ae-f18a-4722-a655-c7e4877d46f1-km-169.7673894741766-gegen" to="3d8424ae-f18a-4722-a655-c7e4877d46f1-km-149.7673894741766-in" shape="-2501040.343970758,3467252.8295054003 -2501059.947101468,3467256.7940061716" priority="-1" numLanes="1" speed="110.0" allow="rail rail_electric" spreadType="center" />
<!-- Track 3d8424ae-f18a-4722-a655-c7e4877d46f1 -->
<edge id="d46f1-4" from="3d8424ae-f18a-4722-a655-c7e4877d46f1-km-169.7673894741766-gegen" to="d44b6" shape="-2501040.343970758,3467252.8295054003 -2501015.8400573703,3467247.8738794364" priority="-1" numLanes="1" speed="110.0" allow="rail rail_electric" spreadType="center" />
<edge id="d46f1-4-re" from="d44b6" to="3d8424ae-f18a-4722-a655-c7e4877d46f1-km-169.7673894741766-gegen" shape="-2501015.8400573703,3467247.8738794364 -2501040.343970758,3467252.8295054003" priority="-1" numLanes="1" speed="110.0" allow="rail rail_electric" spreadType="center" />
<!-- Track 23c866e7-bc9d-4306-88fc-4f6c89123b09 -->
<edge id="23b09-0" from="1a3eb" to="23c866e7-bc9d-4306-88fc-4f6c89123b09-km-25-in" shape="-2501206.7425870663,3467286.4816527255 -2501231.489801964,3467290.0278274002" priority="-1" numLanes="1" speed="110.0" allow="rail rail_electric" spreadType="center" />
<edge id="23b09-0-re" from="23c866e7-bc9d-4306-88fc-4f6c89123b09-km-25-in" to="1a3eb" shape="-2501231.489801964,3467290.0278274002 -2501206.7425870663,3467286.4816527255" priority="-1" numLanes="1" speed="110.0" allow="rail rail_electric" spreadType="center" />
<!-- Track 23c866e7-bc9d-4306-88fc-4f6c89123b09 -->
<edge id="23b09-1" from="23c866e7-bc9d-4306-88fc-4f6c89123b09-km-25-in" to="23c866e7-bc9d-4306-88fc-4f6c89123b09-km-45-gegen" shape="-2501231.489801964,3467290.0278274002 -2501251.2875738814,3467292.86476714" priority="-1" numLanes="1" speed="110.0" allow="rail rail_electric" spreadType="center" />
<edge id="23b09-1-re" from="23c866e7-bc9d-4306-88fc-4f6c89123b09-km-45-gegen" to="23c866e7-bc9d-4306-88fc-4f6c89123b09-km-25-in" shape="-2501251.2875738814,3467292.86476714 -2501231.489801964,3467290.0278274002" priority="-1" numLanes="1" speed="110.0" allow="rail rail_electric" spreadType="center" />
<!-- Track 23c866e7-bc9d-4306-88fc-4f6c89123b09 -->
<edge id="23b09-2" from="23c866e7-bc9d-4306-88fc-4f6c89123b09-km-45-gegen" to="7d0bb" shape="-2501251.2875738814,3467292.86476714 -2501292.2642674847,3467298.736559732 -2501351.8286421327,3467306.9248945564 -2501777.896236745,3467364.0153826177" priority="-1" numLanes="1" speed="110.0" allow="rail rail_electric" spreadType="center" />
<edge id="23b09-2-re" from="7d0bb" to="23c866e7-bc9d-4306-88fc-4f6c89123b09-km-45-gegen" shape="-2501777.896236745,3467364.0153826177 -2501351.8286421327,3467306.9248945564 -2501292.2642674847,3467298.736559732 -2501251.2875738814,3467292.86476714" priority="-1" numLanes="1" speed="110.0" allow="rail rail_electric" spreadType="center" />
<!-- Track 655faeb7-3be7-410c-b68a-2468abdb9430 -->
<edge id="b9430-0" from="d44b6" to="655faeb7-3be7-410c-b68a-2468abdb9430-km-25-in" shape="-2501015.8400573703,3467247.8738794364 -2500991.319573685,3467243.0009050015" priority="-1" numLanes="1" speed="110.0" allow="rail rail_electric" spreadType="center" />
<edge id="b9430-0-re" from="655faeb7-3be7-410c-b68a-2468abdb9430-km-25-in" to="d44b6" shape="-2500991.319573685,3467243.0009050015 -2501015.8400573703,3467247.8738794364" priority="-1" numLanes="1" speed="110.0" allow="rail rail_electric" spreadType="center" />
<!-- Track 655faeb7-3be7-410c-b68a-2468abdb9430 -->
<edge id="b9430-1" from="655faeb7-3be7-410c-b68a-2468abdb9430-km-25-in" to="655faeb7-3be7-410c-b68a-2468abdb9430-km-45-gegen" shape="-2500991.319573685,3467243.0009050015 -2500971.703186737,3467239.102525453" priority="-1" numLanes="1" speed="110.0" allow="rail rail_electric" spreadType="center" />
<edge id="b9430-1-re" from="655faeb7-3be7-410c-b68a-2468abdb9430-km-45-gegen" to="655faeb7-3be7-410c-b68a-2468abdb9430-km-25-in" shape="-2500971.703186737,3467239.102525453 -2500991.319573685,3467243.0009050015" priority="-1" numLanes="1" speed="110.0" allow="rail rail_electric" spreadType="center" />
<!-- Track 655faeb7-3be7-410c-b68a-2468abdb9430 -->
<edge id="b9430-2" from="655faeb7-3be7-410c-b68a-2468abdb9430-km-45-gegen" to="655faeb7-3be7-410c-b68a-2468abdb9430-km-664.7733628877847-in" shape="-2500971.703186737,3467239.102525453 -2500363.817481409,3467118.2969353376" priority="-1" numLanes="1" speed="110.0" allow="rail rail_electric" spreadType="center" />
<edge id="b9430-2-re" from="655faeb7-3be7-410c-b68a-2468abdb9430-km-664.7733628877847-in" to="655faeb7-3be7-410c-b68a-2468abdb9430-km-45-gegen" shape="-2500363.817481409,3467118.2969353376 -2500971.703186737,3467239.102525453" priority="-1" numLanes="1" speed="110.0" allow="rail rail_electric" spreadType="center" />
<!-- Track 655faeb7-3be7-410c-b68a-2468abdb9430 -->
<edge id="b9430-3" from="655faeb7-3be7-410c-b68a-2468abdb9430-km-664.7733628877847-in" to="655faeb7-3be7-410c-b68a-2468abdb9430-km-684.7733628877847-gegen" shape="-2500363.817481409,3467118.2969353376 -2500344.2010944607,3467114.398555789" priority="-1" numLanes="1" speed="110.0" allow="rail rail_electric" spreadType="center" />
<edge id="b9430-3-re" from="655faeb7-3be7-410c-b68a-2468abdb9430-km-684.7733628877847-gegen" to="655faeb7-3be7-410c-b68a-2468abdb9430-km-664.7733628877847-in" shape="-2500344.2010944607,3467114.398555789 -2500363.817481409,3467118.2969353376" priority="-1" numLanes="1" speed="110.0" allow="rail rail_electric" spreadType="center" />
<!-- Track 655faeb7-3be7-410c-b68a-2468abdb9430 -->
<edge id="b9430-4" from="655faeb7-3be7-410c-b68a-2468abdb9430-km-684.7733628877847-gegen" to="5efb6" shape="-2500344.2010944607,3467114.398555789 -2500319.680610776,3467109.5255813543" priority="-1" numLanes="1" speed="110.0" allow="rail rail_electric" spreadType="center" />
<edge id="b9430-4-re" from="5efb6" to="655faeb7-3be7-410c-b68a-2468abdb9430-km-684.7733628877847-gegen" shape="-2500319.680610776,3467109.5255813543 -2500344.2010944607,3467114.398555789" priority="-1" numLanes="1" speed="110.0" allow="rail rail_electric" spreadType="center" />
<!-- Track b00f2edd-38d6-46b1-b4da-e9d97f31627c -->
<edge id="1627c-0" from="d44b6" to="b00f2edd-38d6-46b1-b4da-e9d97f31627c-km-25-in" shape="-2501015.8400573703,3467247.8738794364 -2501040.129426962,3467253.792200551" priority="-1" numLanes="1" speed="110.0" allow="rail rail_electric" spreadType="center" />
<edge id="1627c-0-re" from="b00f2edd-38d6-46b1-b4da-e9d97f31627c-km-25-in" to="d44b6" shape="-2501040.129426962,3467253.792200551 -2501015.8400573703,3467247.8738794364" priority="-1" numLanes="1" speed="110.0" allow="rail rail_electric" spreadType="center" />
<!-- Track b00f2edd-38d6-46b1-b4da-e9d97f31627c -->
<edge id="1627c-1" from="b00f2edd-38d6-46b1-b4da-e9d97f31627c-km-25-in" to="b00f2edd-38d6-46b1-b4da-e9d97f31627c-km-45-gegen" shape="-2501040.129426962,3467253.792200551 -2501059.560922636,3467258.526857442" priority="-1" numLanes="1" speed="110.0" allow="rail rail_electric" spreadType="center" />
<edge id="1627c-1-re" from="b00f2edd-38d6-46b1-b4da-e9d97f31627c-km-45-gegen" to="b00f2edd-38d6-46b1-b4da-e9d97f31627c-km-25-in" shape="-2501059.560922636,3467258.526857442 -2501040.129426962,3467253.792200551" priority="-1" numLanes="1" speed="110.0" allow="rail rail_electric" spreadType="center" />
<!-- Track b00f2edd-38d6-46b1-b4da-e9d97f31627c -->
<edge id="1627c-2" from="b00f2edd-38d6-46b1-b4da-e9d97f31627c-km-45-gegen" to="553b0" shape="-2501059.560922636,3467258.526857442 -2501115.083613891,3467272.0554554053 -2501236.739845654,3467305.6705410834 -2501274.012567208,3467312.6615284346 -2501684.7521156543,3467394.7215760183" priority="-1" numLanes="1" speed="110.0" allow="rail rail_electric" spreadType="center" />
<edge id="1627c-2-re" from="553b0" to="b00f2edd-38d6-46b1-b4da-e9d97f31627c-km-45-gegen" shape="-2501684.7521156543,3467394.7215760183 -2501274.012567208,3467312.6615284346 -2501236.739845654,3467305.6705410834 -2501115.083613891,3467272.0554554053 -2501059.560922636,3467258.526857442" priority="-1" numLanes="1" speed="110.0" allow="rail rail_electric" spreadType="center" />
<!-- Track 3b3fd228-7056-4de8-ac59-e79094847c16 -->
<edge id="47c16-0" from="7e6a3" to="3b3fd228-7056-4de8-ac59-e79094847c16-km-25-in" shape="-2512719.9413880925,3471469.651634462 -2512731.2061299887,3471491.969913742" priority="-1" numLanes="1" speed="110.0" allow="rail rail_electric" spreadType="center" />
<edge id="47c16-0-re" from="3b3fd228-7056-4de8-ac59-e79094847c16-km-25-in" to="7e6a3" shape="-2512731.2061299887,3471491.969913742 -2512719.9413880925,3471469.651634462" priority="-1" numLanes="1" speed="110.0" allow="rail rail_electric" spreadType="center" />
<!-- Track 3b3fd228-7056-4de8-ac59-e79094847c16 -->
<edge id="47c16-1" from="3b3fd228-7056-4de8-ac59-e79094847c16-km-25-in" to="3b3fd228-7056-4de8-ac59-e79094847c16-km-45-gegen" shape="-2512731.2061299887,3471491.969913742 -2512740.2179235057,3471509.824537166" priority="-1" numLanes="1" speed="110.0" allow="rail rail_electric" spreadType="center" />
<edge id="47c16-1-re" from="3b3fd228-7056-4de8-ac59-e79094847c16-km-45-gegen" to="3b3fd228-7056-4de8-ac59-e79094847c16-km-25-in" shape="-2512740.2179235057,3471509.824537166 -2512731.2061299887,3471491.969913742" priority="-1" numLanes="1" speed="110.0" allow="rail rail_electric" spreadType="center" />
<!-- Track 3b3fd228-7056-4de8-ac59-e79094847c16 -->
<edge id="47c16-2" from="3b3fd228-7056-4de8-ac59-e79094847c16-km-45-gegen" to="3b3fd228-7056-4de8-ac59-e79094847c16-km-990.0-in" shape="-2512740.2179235057,3471509.824537166 -2513166.0251671826,3472353.455493943" priority="-1" numLanes="1" speed="110.0" allow="rail rail_electric" spreadType="center" />
<edge id="47c16-2-re" from="3b3fd228-7056-4de8-ac59-e79094847c16-km-990.0-in" to="3b3fd228-7056-4de8-ac59-e79094847c16-km-45-gegen" shape="-2513166.0251671826,3472353.455493943 -2512740.2179235057,3471509.824537166" priority="-1" numLanes="1" speed="110.0" allow="rail rail_electric" spreadType="center" />
<!-- Track 3b3fd228-7056-4de8-ac59-e79094847c16 -->