<?xml version="1.0" encoding="UTF-8"?>

<!-- generated on 2023-06-21 14:15:23 by Eclipse SUMO netedit Version 1.15.0
-->

<additional xmlns:xsi="http://www.w3.org/2001/XMLSchema-instance" xsi:noNamespaceSchemaLocation="http://sumo.dlr.de/xsd/additional_file.xsd">
    <!-- StoppingPlaces -->
    <busStop id="bs_0" lane="0a6f2-4-re_0" startPos="343.73" endPos="443.73"/>
    <busStop id="bs_0_pseudo" lane="72421-2-re_0" startPos="300.33" endPos="400.33"/>
    <busStop id="bs_1" lane="8c3d3-6_0" startPos="800.87" endPos="900.87"/>
    <busStop id="bs_1_pseudo" lane="3bcaf-4_0" startPos="1518.42" endPos="1618.42"/>
    <busStop id="bs_2" lane="d9ca5-12-re_0" startPos="122.25" endPos="222.25"/>
    <busStop id="bs_2_pseudo" lane="d9ca5-10-re_0" startPos="704.88" endPos="804.88"/>
    <busStop id="bs_3" lane="be84c-2-re_0" startPos="744.09" endPos="844.09"/>
</additional>
