<?xml version="1.0" encoding="UTF-8"?>

<!-- generated on 2023-06-15 12:59:44 by Eclipse SUMO netconvert Version v1_17_0+0919-6a4cbcaacb7
<configuration xmlns:xsi="http://www.w3.org/2001/XMLSchema-instance" xsi:noNamespaceSchemaLocation="http://sumo.dlr.de/xsd/netconvertConfiguration.xsd">

    <input>
        <node-files value="sumo-config/demonstration.nod.xml"/>
        <edge-files value="sumo-config/demonstration.edg.xml"/>
        <connection-files value="sumo-config/demonstration.con.xml"/>
    </input>

    <output>
        <output-file value="sumo-config/demonstration.net.xml"/>
    </output>

    <junctions>
        <no-internal-links value="true"/>
        <junctions.minimal-shape value="true"/>
    </junctions>

    <railway>
        <railway.topology.repair value="true"/>
        <railway.topology.repair.connect-straight value="true"/>
        <railway.topology.all-bidi value="false"/>
    </railway>

</configuration>
-->

<net version="1.16" junctionCornerDetail="5" limitTurnSpeed="5.50" xmlns:xsi="http://www.w3.org/2001/XMLSchema-instance" xsi:noNamespaceSchemaLocation="http://sumo.dlr.de/xsd/net_file.xsd">

    <location netOffset="2514252.72,-3456578.38" convBoundary="0.00,0.00,26584.61,22007.03" origBoundary="-2514252.72,3456578.38,-2487668.11,3478585.41" projParameter="!"/>

    <edge id="000ea-0" from="0fc5f" to="43d885ce-a6ab-4e3e-82ed-c32d952000ea-km-25-gegen" priority="-1" spreadType="center" bidi="000ea-0-re">
        <lane id="000ea-0_0" index="0" allow="rail rail_electric" speed="110.00" length="25.00" shape="2154.31,14285.01 2129.41,14282.77"/>
    </edge>
    <edge id="000ea-0-re" from="43d885ce-a6ab-4e3e-82ed-c32d952000ea-km-25-gegen" to="0fc5f" priority="-1" spreadType="center" bidi="000ea-0">
        <lane id="000ea-0-re_0" index="0" allow="rail rail_electric" speed="110.00" length="25.00" shape="2129.41,14282.77 2154.31,14285.01"/>
    </edge>
    <edge id="000ea-1" from="43d885ce-a6ab-4e3e-82ed-c32d952000ea-km-25-gegen" to="43d885ce-a6ab-4e3e-82ed-c32d952000ea-km-1047.4225277020807-in" priority="-1" spreadType="center" shape="2129.41,14282.77 1684.79,14242.68 1162.37,14206.86 1110.01,14206.75" bidi="000ea-1-re">
        <lane id="000ea-1_0" index="0" allow="rail rail_electric" speed="110.00" length="1022.42" shape="2129.41,14282.77 1684.79,14242.68 1162.37,14206.86 1110.01,14206.75"/>
    </edge>
    <edge id="000ea-1-re" from="43d885ce-a6ab-4e3e-82ed-c32d952000ea-km-1047.4225277020807-in" to="43d885ce-a6ab-4e3e-82ed-c32d952000ea-km-25-gegen" priority="-1" spreadType="center" shape="1110.01,14206.75 1162.37,14206.86 1684.79,14242.68 2129.41,14282.77" bidi="000ea-1">
        <lane id="000ea-1-re_0" index="0" allow="rail rail_electric" speed="110.00" length="1022.42" shape="1110.01,14206.75 1162.37,14206.86 1684.79,14242.68 2129.41,14282.77"/>
    </edge>
    <edge id="000ea-2" from="43d885ce-a6ab-4e3e-82ed-c32d952000ea-km-1047.4225277020807-in" to="8a453" priority="-1" spreadType="center" bidi="000ea-2-re">
        <lane id="000ea-2_0" index="0" allow="rail rail_electric" speed="110.00" length="25.00" shape="1110.01,14206.75 1085.01,14206.70"/>
    </edge>
    <edge id="000ea-2-re" from="8a453" to="43d885ce-a6ab-4e3e-82ed-c32d952000ea-km-1047.4225277020807-in" priority="-1" spreadType="center" bidi="000ea-2">
        <lane id="000ea-2-re_0" index="0" allow="rail rail_electric" speed="110.00" length="25.00" shape="1085.01,14206.70 1110.01,14206.75"/>
    </edge>
    <edge id="00a9c-0" from="2836c" to="2a9c896c-f55f-4ac8-9b21-318644100a9c-km-25-gegen" priority="-1" spreadType="center" bidi="00a9c-0-re">
        <lane id="00a9c-0_0" index="0" allow="rail rail_electric" speed="110.00" length="25.00" shape="2127.34,14291.23 2102.41,14289.40"/>
    </edge>
    <edge id="00a9c-0-re" from="2a9c896c-f55f-4ac8-9b21-318644100a9c-km-25-gegen" to="2836c" priority="-1" spreadType="center" bidi="00a9c-0">
        <lane id="00a9c-0-re_0" index="0" allow="rail rail_electric" speed="110.00" length="25.00" shape="2102.41,14289.40 2127.34,14291.23"/>
    </edge>
    <edge id="00a9c-1" from="2a9c896c-f55f-4ac8-9b21-318644100a9c-km-25-gegen" to="2a9c896c-f55f-4ac8-9b21-318644100a9c-km-1180.116010302782-in" priority="-1" spreadType="center" bidi="00a9c-1-re">
        <lane id="00a9c-1_0" index="0" allow="rail rail_electric" speed="110.00" length="1155.12" shape="2102.41,14289.40 950.39,14204.83"/>
    </edge>
    <edge id="00a9c-1-re" from="2a9c896c-f55f-4ac8-9b21-318644100a9c-km-1180.116010302782-in" to="2a9c896c-f55f-4ac8-9b21-318644100a9c-km-25-gegen" priority="-1" spreadType="center" bidi="00a9c-1">
        <lane id="00a9c-1-re_0" index="0" allow="rail rail_electric" speed="110.00" length="1155.12" shape="950.39,14204.83 2102.41,14289.40"/>
    </edge>
    <edge id="00a9c-2" from="2a9c896c-f55f-4ac8-9b21-318644100a9c-km-1180.116010302782-in" to="0a849" priority="-1" spreadType="center" bidi="00a9c-2-re">
        <lane id="00a9c-2_0" index="0" allow="rail rail_electric" speed="110.00" length="25.00" shape="950.39,14204.83 925.46,14203.00"/>
    </edge>
    <edge id="00a9c-2-re" from="0a849" to="2a9c896c-f55f-4ac8-9b21-318644100a9c-km-1180.116010302782-in" priority="-1" spreadType="center" bidi="00a9c-2">
        <lane id="00a9c-2-re_0" index="0" allow="rail rail_electric" speed="110.00" length="25.00" shape="925.46,14203.00 950.39,14204.83"/>
    </edge>
    <edge id="00b60-0" from="5a7fc" to="5b2d3" priority="-1" spreadType="center" shape="17183.29,8780.87 17169.84,8841.66 17166.01,8866.24" bidi="00b60-0-re">
        <lane id="00b60-0_0" index="0" allow="rail rail_electric" speed="110.00" length="87.14" shape="17183.27,8780.98 17169.84,8841.66 17166.01,8866.24"/>
    </edge>
    <edge id="00b60-0-re" from="5b2d3" to="5a7fc" priority="-1" spreadType="center" shape="17166.01,8866.24 17169.84,8841.66 17183.29,8780.87" bidi="00b60-0">
        <lane id="00b60-0-re_0" index="0" allow="rail rail_electric" speed="110.00" length="87.14" shape="17166.01,8866.24 17169.84,8841.66 17183.27,8780.98"/>
    </edge>
    <edge id="0106f-0" from="121ab" to="26dcb" priority="-1" spreadType="center" shape="19665.02,4642.35 19640.39,4698.87 19629.33,4721.95" bidi="0106f-0-re">
        <lane id="0106f-0_0" index="0" allow="rail rail_electric" speed="110.00" length="87.24" shape="19665.02,4642.35 19640.39,4698.87 19629.33,4721.95"/>
    </edge>
    <edge id="0106f-0-re" from="26dcb" to="121ab" priority="-1" spreadType="center" shape="19629.33,4721.95 19640.39,4698.87 19665.02,4642.35" bidi="0106f-0">
        <lane id="0106f-0-re_0" index="0" allow="rail rail_electric" speed="110.00" length="87.24" shape="19629.33,4721.95 19640.39,4698.87 19665.02,4642.35"/>
    </edge>
    <edge id="01334-0" from="9c2b2" to="ed4dd9da-445a-470d-a2a3-e5bebbc01334-km-25-gegen" priority="-1" spreadType="center" bidi="01334-0-re">
        <lane id="01334-0_0" index="0" allow="rail rail_electric" speed="110.00" length="25.00" shape="2318.81,11947.74 2294.06,11951.29"/>
    </edge>
    <edge id="01334-0-re" from="ed4dd9da-445a-470d-a2a3-e5bebbc01334-km-25-gegen" to="9c2b2" priority="-1" spreadType="center" bidi="01334-0">
        <lane id="01334-0-re_0" index="0" allow="rail rail_electric" speed="110.00" length="25.00" shape="2294.06,11951.29 2318.81,11947.74"/>
    </edge>
    <edge id="01334-1" from="ed4dd9da-445a-470d-a2a3-e5bebbc01334-km-25-gegen" to="6554b" priority="-1" spreadType="center" shape="2294.06,11951.29 2014.54,11991.30 1993.70,11994.60 1969.74,11999.13 1946.41,12004.25 1825.88,12032.24 1821.93,12033.18" bidi="01334-1-re">
        <lane id="01334-1_0" index="0" allow="rail rail_electric" speed="110.00" length="479.53" shape="2294.06,11951.29 2014.54,11991.30 1993.70,11994.60 1969.74,11999.13 1946.41,12004.25 1825.88,12032.24 1821.93,12033.18"/>
    </edge>
    <edge id="01334-1-re" from="6554b" to="ed4dd9da-445a-470d-a2a3-e5bebbc01334-km-25-gegen" priority="-1" spreadType="center" shape="1821.93,12033.18 1825.88,12032.24 1946.41,12004.25 1969.74,11999.13 1993.70,11994.60 2014.54,11991.30 2294.06,11951.29" bidi="01334-1">
        <lane id="01334-1-re_0" index="0" allow="rail rail_electric" speed="110.00" length="479.53" shape="1821.93,12033.18 1825.88,12032.24 1946.41,12004.25 1969.74,11999.13 1993.70,11994.60 2014.54,11991.30 2294.06,11951.29"/>
    </edge>
    <edge id="015c9-0" from="a66fd" to="287d9" priority="-1" spreadType="center" bidi="015c9-0-re">
        <lane id="015c9-0_0" index="0" allow="rail rail_electric" speed="110.00" length="45.73" shape="15459.91,10225.68 15504.83,10217.08"/>
    </edge>
    <edge id="015c9-0-re" from="287d9" to="a66fd" priority="-1" spreadType="center" bidi="015c9-0">
        <lane id="015c9-0-re_0" index="0" allow="rail rail_electric" speed="110.00" length="45.73" shape="15504.83,10217.08 15459.91,10225.68"/>
    </edge>
    <edge id="016d4-0" from="92b35" to="87fa2756-08cd-496f-ad38-fe02da2016d4-km-25-gegen" priority="-1" spreadType="center" bidi="016d4-0-re">
        <lane id="016d4-0_0" index="0" allow="rail rail_electric" speed="110.00" length="25.00" shape="21119.88,15822.19 21134.03,15801.58"/>
    </edge>
    <edge id="016d4-0-re" from="87fa2756-08cd-496f-ad38-fe02da2016d4-km-25-gegen" to="92b35" priority="-1" spreadType="center" bidi="016d4-0">
        <lane id="016d4-0-re_0" index="0" allow="rail rail_electric" speed="110.00" length="25.00" shape="21134.03,15801.58 21119.88,15822.19"/>
    </edge>
    <edge id="016d4-1" from="87fa2756-08cd-496f-ad38-fe02da2016d4-km-25-gegen" to="87fa2756-08cd-496f-ad38-fe02da2016d4-km-1073.730506931043-in" priority="-1" spreadType="center" shape="21134.03,15801.58 21198.18,15708.17 21255.93,15624.17 21268.40,15605.64 21280.82,15586.90 21299.01,15556.63 21310.43,15537.31 21356.12,15447.87 21450.36,15263.86 21515.38,15135.40 21534.66,15097.50 21548.05,15066.14 21556.02,15046.23 21572.21,15003.72 21588.49,14957.42 21603.62,14923.48 21625.23,14878.44" bidi="016d4-1-re">
        <lane id="016d4-1_0" index="0" allow="rail rail_electric" speed="110.00" length="1048.73" shape="21134.03,15801.58 21198.18,15708.17 21255.93,15624.17 21268.40,15605.64 21280.82,15586.90 21299.01,15556.63 21310.43,15537.31 21356.12,15447.87 21450.36,15263.86 21515.38,15135.40 21534.66,15097.50 21548.05,15066.14 21556.02,15046.23 21572.21,15003.72 21588.49,14957.42 21603.62,14923.48 21625.23,14878.44"/>
    </edge>
    <edge id="016d4-1-re" from="87fa2756-08cd-496f-ad38-fe02da2016d4-km-1073.730506931043-in" to="87fa2756-08cd-496f-ad38-fe02da2016d4-km-25-gegen" priority="-1" spreadType="center" shape="21625.23,14878.44 21603.62,14923.48 21588.49,14957.42 21572.21,15003.72 21556.02,15046.23 21548.05,15066.14 21534.66,15097.50 21515.38,15135.40 21450.36,15263.86 21356.12,15447.87 21310.43,15537.31 21299.01,15556.63 21280.82,15586.90 21268.40,15605.64 21255.93,15624.17 21198.18,15708.17 21134.03,15801.58" bidi="016d4-1">
        <lane id="016d4-1-re_0" index="0" allow="rail rail_electric" speed="110.00" length="1048.73" shape="21625.23,14878.44 21603.62,14923.48 21588.49,14957.42 21572.21,15003.72 21556.02,15046.23 21548.05,15066.14 21534.66,15097.50 21515.38,15135.40 21450.36,15263.86 21356.12,15447.87 21310.43,15537.31 21299.01,15556.63 21280.82,15586.90 21268.40,15605.64 21255.93,15624.17 21198.18,15708.17 21134.03,15801.58"/>
    </edge>
    <edge id="016d4-2" from="87fa2756-08cd-496f-ad38-fe02da2016d4-km-1073.730506931043-in" to="4c4e2" priority="-1" spreadType="center" shape="21625.23,14878.44 21628.62,14871.37 21635.33,14855.57" bidi="016d4-2-re">
        <lane id="016d4-2_0" index="0" allow="rail rail_electric" speed="110.00" length="25.00" shape="21625.23,14878.44 21628.62,14871.37 21635.33,14855.57"/>
    </edge>
    <edge id="016d4-2-re" from="4c4e2" to="87fa2756-08cd-496f-ad38-fe02da2016d4-km-1073.730506931043-in" priority="-1" spreadType="center" shape="21635.33,14855.57 21628.62,14871.37 21625.23,14878.44" bidi="016d4-2">
        <lane id="016d4-2-re_0" index="0" allow="rail rail_electric" speed="110.00" length="25.00" shape="21635.33,14855.57 21628.62,14871.37 21625.23,14878.44"/>
    </edge>
    <edge id="033e5-0" from="57bcf" to="b18bf" priority="-1" spreadType="center" bidi="033e5-0-re">
        <lane id="033e5-0_0" index="0" allow="rail rail_electric" speed="110.00" length="63.95" shape="15842.07,8389.99 15779.37,8402.58"/>
    </edge>
    <edge id="033e5-0-re" from="b18bf" to="57bcf" priority="-1" spreadType="center" bidi="033e5-0">
        <lane id="033e5-0-re_0" index="0" allow="rail rail_electric" speed="110.00" length="63.95" shape="15779.37,8402.58 15842.07,8389.99"/>
    </edge>
    <edge id="0353c-0" from="8a5c1" to="f20a2" priority="-1" spreadType="center" bidi="0353c-0-re">
        <lane id="0353c-0_0" index="0" allow="rail rail_electric" speed="110.00" length="98.96" shape="12498.46,10758.59 12595.51,10739.30"/>
    </edge>
    <edge id="0353c-0-re" from="f20a2" to="8a5c1" priority="-1" spreadType="center" bidi="0353c-0">
        <lane id="0353c-0-re_0" index="0" allow="rail rail_electric" speed="110.00" length="98.96" shape="12595.51,10739.30 12498.46,10758.59"/>
    </edge>
    <edge id="0425e-0" from="0d8b2" to="91771" priority="-1" spreadType="center" bidi="0425e-0-re">
        <lane id="0425e-0_0" index="0" allow="rail rail_electric" speed="110.00" length="43.95" shape="17119.21,9111.37 17114.96,9067.62"/>
    </edge>
    <edge id="0425e-0-re" from="91771" to="0d8b2" priority="-1" spreadType="center" bidi="0425e-0">
        <lane id="0425e-0-re_0" index="0" allow="rail rail_electric" speed="110.00" length="43.95" shape="17114.96,9067.62 17119.21,9111.37"/>
    </edge>
    <edge id="045d9-0" from="1fd03" to="095d6fd1-08ca-4d12-95ea-11c3c77045d9-km-25-gegen" priority="-1" spreadType="center" bidi="045d9-0-re">
        <lane id="045d9-0_0" index="0" allow="rail rail_electric" speed="110.00" length="25.00" shape="14319.23,10138.49 14343.46,10132.34"/>
    </edge>
    <edge id="045d9-0-re" from="095d6fd1-08ca-4d12-95ea-11c3c77045d9-km-25-gegen" to="1fd03" priority="-1" spreadType="center" bidi="045d9-0">
        <lane id="045d9-0-re_0" index="0" allow="rail rail_electric" speed="110.00" length="25.00" shape="14343.46,10132.34 14319.23,10138.49"/>
    </edge>
    <edge id="045d9-1" from="095d6fd1-08ca-4d12-95ea-11c3c77045d9-km-25-gegen" to="095d6fd1-08ca-4d12-95ea-11c3c77045d9-km-121.2686370372104-in" priority="-1" spreadType="center" shape="14343.46,10132.34 14416.11,10113.89 14436.76,10108.64" bidi="045d9-1-re">
        <lane id="045d9-1_0" index="0" allow="rail rail_electric" speed="110.00" length="96.27" shape="14343.46,10132.34 14416.11,10113.89 14436.76,10108.64"/>
    </edge>
    <edge id="045d9-1-re" from="095d6fd1-08ca-4d12-95ea-11c3c77045d9-km-121.2686370372104-in" to="095d6fd1-08ca-4d12-95ea-11c3c77045d9-km-25-gegen" priority="-1" spreadType="center" shape="14436.76,10108.64 14416.11,10113.89 14343.46,10132.34" bidi="045d9-1">
        <lane id="045d9-1-re_0" index="0" allow="rail rail_electric" speed="110.00" length="96.27" shape="14436.76,10108.64 14416.11,10113.89 14343.46,10132.34"/>
    </edge>
    <edge id="045d9-2" from="095d6fd1-08ca-4d12-95ea-11c3c77045d9-km-121.2686370372104-in" to="c0675" priority="-1" spreadType="center" bidi="045d9-2-re">
        <lane id="045d9-2_0" index="0" allow="rail rail_electric" speed="110.00" length="25.00" shape="14436.76,10108.64 14460.99,10102.49"/>
    </edge>
    <edge id="045d9-2-re" from="c0675" to="095d6fd1-08ca-4d12-95ea-11c3c77045d9-km-121.2686370372104-in" priority="-1" spreadType="center" bidi="045d9-2">
        <lane id="045d9-2-re_0" index="0" allow="rail rail_electric" speed="110.00" length="25.00" shape="14460.99,10102.49 14436.76,10108.64"/>
    </edge>
    <edge id="04aa8-0" from="516cb" to="f82dce9b-72c2-46d0-a8ff-7f458b204aa8-km-25-gegen" priority="-1" spreadType="center" bidi="04aa8-0-re">
        <lane id="04aa8-0_0" index="0" allow="rail rail_electric" speed="110.00" length="25.00" shape="16988.40,9043.01 16970.44,9060.41"/>
    </edge>
    <edge id="04aa8-0-re" from="f82dce9b-72c2-46d0-a8ff-7f458b204aa8-km-25-gegen" to="516cb" priority="-1" spreadType="center" bidi="04aa8-0">
        <lane id="04aa8-0-re_0" index="0" allow="rail rail_electric" speed="110.00" length="25.00" shape="16970.44,9060.41 16988.40,9043.01"/>
    </edge>
    <edge id="04aa8-1" from="f82dce9b-72c2-46d0-a8ff-7f458b204aa8-km-25-gegen" to="bbade" priority="-1" spreadType="center" shape="16970.44,9060.41 16925.49,9103.95 16892.01,9126.73 16842.63,9150.91 16803.38,9166.23 16760.34,9178.12 16597.15,9211.14 16566.01,9219.35" bidi="04aa8-1-re">
        <lane id="04aa8-1_0" index="0" allow="rail rail_electric" speed="110.00" length="443.55" shape="16970.44,9060.41 16925.49,9103.95 16892.01,9126.73 16842.63,9150.91 16803.38,9166.23 16760.34,9178.12 16597.15,9211.14 16566.01,9219.35"/>
    </edge>
    <edge id="04aa8-1-re" from="bbade" to="f82dce9b-72c2-46d0-a8ff-7f458b204aa8-km-25-gegen" priority="-1" spreadType="center" shape="16566.01,9219.35 16597.15,9211.14 16760.34,9178.12 16803.38,9166.23 16842.63,9150.91 16892.01,9126.73 16925.49,9103.95 16970.44,9060.41" bidi="04aa8-1">
        <lane id="04aa8-1-re_0" index="0" allow="rail rail_electric" speed="110.00" length="443.55" shape="16566.01,9219.35 16597.15,9211.14 16760.34,9178.12 16803.38,9166.23 16842.63,9150.91 16892.01,9126.73 16925.49,9103.95 16970.44,9060.41"/>
    </edge>
    <edge id="04bc0-0" from="b14c7" to="dbf27618-b6d5-45ab-a4ba-4c613e804bc0-km-171.00423970473466-in" priority="-1" spreadType="center" shape="11886.61,9928.30 11899.76,9998.95 11899.96,10027.32 11894.59,10058.10 11884.23,10088.92 11882.65,10095.75" bidi="04bc0-0-re">
        <lane id="04bc0-0_0" index="0" allow="rail rail_electric" speed="110.00" length="171.00" shape="11886.61,9928.30 11899.76,9998.95 11899.96,10027.32 11894.59,10058.10 11884.23,10088.92 11882.65,10095.75"/>
    </edge>
    <edge id="04bc0-0-re" from="dbf27618-b6d5-45ab-a4ba-4c613e804bc0-km-171.00423970473466-in" to="b14c7" priority="-1" spreadType="center" shape="11882.65,10095.75 11884.23,10088.92 11894.59,10058.10 11899.96,10027.32 11899.76,9998.95 11886.61,9928.30" bidi="04bc0-0">
        <lane id="04bc0-0-re_0" index="0" allow="rail rail_electric" speed="110.00" length="171.00" shape="11882.65,10095.75 11884.23,10088.92 11894.59,10058.10 11899.96,10027.32 11899.76,9998.95 11886.61,9928.30"/>
    </edge>
    <edge id="04bc0-1" from="dbf27618-b6d5-45ab-a4ba-4c613e804bc0-km-171.00423970473466-in" to="07789" priority="-1" spreadType="center" shape="11882.65,10095.75 11880.85,10103.52 11879.66,10120.50" bidi="04bc0-1-re">
        <lane id="04bc0-1_0" index="0" allow="rail rail_electric" speed="110.00" length="25.00" shape="11882.65,10095.75 11880.85,10103.52 11879.66,10120.50"/>
    </edge>
    <edge id="04bc0-1-re" from="07789" to="dbf27618-b6d5-45ab-a4ba-4c613e804bc0-km-171.00423970473466-in" priority="-1" spreadType="center" shape="11879.66,10120.50 11880.85,10103.52 11882.65,10095.75" bidi="04bc0-1">
        <lane id="04bc0-1-re_0" index="0" allow="rail rail_electric" speed="110.00" length="25.00" shape="11879.66,10120.50 11880.85,10103.52 11882.65,10095.75"/>
    </edge>
    <edge id="0540e-0" from="5e8b9" to="8d3ec6cf-2a2a-4250-9d64-b59457c0540e-km-25-gegen" priority="-1" spreadType="center" bidi="0540e-0-re">
        <lane id="0540e-0_0" index="0" allow="rail rail_electric" speed="110.00" length="25.00" shape="18135.68,7387.08 18147.86,7365.24"/>
    </edge>
    <edge id="0540e-0-re" from="8d3ec6cf-2a2a-4250-9d64-b59457c0540e-km-25-gegen" to="5e8b9" priority="-1" spreadType="center" bidi="0540e-0">
        <lane id="0540e-0-re_0" index="0" allow="rail rail_electric" speed="110.00" length="25.00" shape="18147.86,7365.24 18135.68,7387.08"/>
    </edge>
    <edge id="0540e-1" from="8d3ec6cf-2a2a-4250-9d64-b59457c0540e-km-25-gegen" to="8d3ec6cf-2a2a-4250-9d64-b59457c0540e-km-948.2641741372947-in" priority="-1" spreadType="center" bidi="0540e-1-re">
        <lane id="0540e-1_0" index="0" allow="rail rail_electric" speed="110.00" length="923.26" shape="18147.86,7365.24 18597.55,6558.89"/>
    </edge>
    <edge id="0540e-1-re" from="8d3ec6cf-2a2a-4250-9d64-b59457c0540e-km-948.2641741372947-in" to="8d3ec6cf-2a2a-4250-9d64-b59457c0540e-km-25-gegen" priority="-1" spreadType="center" bidi="0540e-1">
        <lane id="0540e-1-re_0" index="0" allow="rail rail_electric" speed="110.00" length="923.26" shape="18597.55,6558.89 18147.86,7365.24"/>
    </edge>
    <edge id="0540e-2" from="8d3ec6cf-2a2a-4250-9d64-b59457c0540e-km-948.2641741372947-in" to="bb0e6" priority="-1" spreadType="center" bidi="0540e-2-re">
        <lane id="0540e-2_0" index="0" allow="rail rail_electric" speed="110.00" length="25.00" shape="18597.55,6558.89 18609.72,6537.06"/>
    </edge>
    <edge id="0540e-2-re" from="bb0e6" to="8d3ec6cf-2a2a-4250-9d64-b59457c0540e-km-948.2641741372947-in" priority="-1" spreadType="center" bidi="0540e-2">
        <lane id="0540e-2-re_0" index="0" allow="rail rail_electric" speed="110.00" length="25.00" shape="18609.72,6537.06 18597.55,6558.89"/>
    </edge>
    <edge id="0578c-0" from="a9f5d" to="e2debe5e-3ce2-4d6d-859d-8cc26610578c-km-25-gegen" priority="-1" spreadType="center" bidi="0578c-0-re">
        <lane id="0578c-0_0" index="0" allow="rail rail_electric" speed="110.00" length="25.00" shape="20281.43,3559.21 20275.90,3583.59"/>
    </edge>
    <edge id="0578c-0-re" from="e2debe5e-3ce2-4d6d-859d-8cc26610578c-km-25-gegen" to="a9f5d" priority="-1" spreadType="center" bidi="0578c-0">
        <lane id="0578c-0-re_0" index="0" allow="rail rail_electric" speed="110.00" length="25.00" shape="20275.90,3583.59 20281.43,3559.21"/>
    </edge>
    <edge id="0578c-1" from="e2debe5e-3ce2-4d6d-859d-8cc26610578c-km-25-gegen" to="10612" priority="-1" spreadType="center" bidi="0578c-1-re">
        <lane id="0578c-1_0" index="0" allow="rail rail_electric" speed="110.00" length="142.18" shape="20275.90,3583.59 20244.48,3722.26"/>
    </edge>
    <edge id="0578c-1-re" from="10612" to="e2debe5e-3ce2-4d6d-859d-8cc26610578c-km-25-gegen" priority="-1" spreadType="center" bidi="0578c-1">
        <lane id="0578c-1-re_0" index="0" allow="rail rail_electric" speed="110.00" length="142.18" shape="20244.48,3722.26 20275.90,3583.59"/>
    </edge>
    <edge id="05dfe-0" from="2703c" to="62b6e6ce-19cd-4ff7-acfe-414f7fa05dfe-km-25-gegen" priority="-1" spreadType="center" bidi="05dfe-0-re">
        <lane id="05dfe-0_0" index="0" allow="rail rail_electric" speed="110.00" length="25.00" shape="15322.45,10815.47 15346.97,10810.60"/>
    </edge>
    <edge id="05dfe-0-re" from="62b6e6ce-19cd-4ff7-acfe-414f7fa05dfe-km-25-gegen" to="2703c" priority="-1" spreadType="center" bidi="05dfe-0">
        <lane id="05dfe-0-re_0" index="0" allow="rail rail_electric" speed="110.00" length="25.00" shape="15346.97,10810.60 15322.45,10815.47"/>
    </edge>
    <edge id="05dfe-1" from="62b6e6ce-19cd-4ff7-acfe-414f7fa05dfe-km-25-gegen" to="62b6e6ce-19cd-4ff7-acfe-414f7fa05dfe-km-105.83427187899221-in" priority="-1" spreadType="center" bidi="05dfe-1-re">
        <lane id="05dfe-1_0" index="0" allow="rail rail_electric" speed="110.00" length="80.83" shape="15346.97,10810.60 15426.25,10794.85"/>
    </edge>
    <edge id="05dfe-1-re" from="62b6e6ce-19cd-4ff7-acfe-414f7fa05dfe-km-105.83427187899221-in" to="62b6e6ce-19cd-4ff7-acfe-414f7fa05dfe-km-25-gegen" priority="-1" spreadType="center" bidi="05dfe-1">
        <lane id="05dfe-1-re_0" index="0" allow="rail rail_electric" speed="110.00" length="80.83" shape="15426.25,10794.85 15346.97,10810.60"/>
    </edge>
    <edge id="05dfe-2" from="62b6e6ce-19cd-4ff7-acfe-414f7fa05dfe-km-105.83427187899221-in" to="8be9f" priority="-1" spreadType="center" bidi="05dfe-2-re">
        <lane id="05dfe-2_0" index="0" allow="rail rail_electric" speed="110.00" length="25.00" shape="15426.25,10794.85 15450.77,10789.97"/>
    </edge>
    <edge id="05dfe-2-re" from="8be9f" to="62b6e6ce-19cd-4ff7-acfe-414f7fa05dfe-km-105.83427187899221-in" priority="-1" spreadType="center" bidi="05dfe-2">
        <lane id="05dfe-2-re_0" index="0" allow="rail rail_electric" speed="110.00" length="25.00" shape="15450.77,10789.97 15426.25,10794.85"/>
    </edge>
    <edge id="069af-0" from="039a1" to="1520c" priority="-1" spreadType="center" bidi="069af-0-re">
        <lane id="069af-0_0" index="0" allow="rail rail_electric" speed="110.00" length="71.43" shape="19600.11,4774.61 19565.03,4836.83"/>
    </edge>
    <edge id="069af-0-re" from="1520c" to="039a1" priority="-1" spreadType="center" bidi="069af-0">
        <lane id="069af-0-re_0" index="0" allow="rail rail_electric" speed="110.00" length="71.43" shape="19565.03,4836.83 19600.11,4774.61"/>
    </edge>
    <edge id="07643-0" from="8dce5" to="bd5526fa-5cb7-4217-bc4a-c80a33c07643-km-25-gegen" priority="-1" spreadType="center" bidi="07643-0-re">
        <lane id="07643-0_0" index="0" allow="rail rail_electric" speed="110.00" length="25.00" shape="17190.77,9419.86 17194.08,9395.08"/>
    </edge>
    <edge id="07643-0-re" from="bd5526fa-5cb7-4217-bc4a-c80a33c07643-km-25-gegen" to="8dce5" priority="-1" spreadType="center" bidi="07643-0">
        <lane id="07643-0-re_0" index="0" allow="rail rail_electric" speed="110.00" length="25.00" shape="17194.08,9395.08 17190.77,9419.86"/>
    </edge>
    <edge id="07643-1" from="bd5526fa-5cb7-4217-bc4a-c80a33c07643-km-25-gegen" to="bd5526fa-5cb7-4217-bc4a-c80a33c07643-km-87.85823641296123-in" priority="-1" spreadType="center" shape="17194.08,9395.08 17202.33,9333.34 17202.41,9332.78" bidi="07643-1-re">
        <lane id="07643-1_0" index="0" allow="rail rail_electric" speed="110.00" length="62.86" shape="17194.08,9395.08 17202.33,9333.34 17202.41,9332.78"/>
    </edge>
    <edge id="07643-1-re" from="bd5526fa-5cb7-4217-bc4a-c80a33c07643-km-87.85823641296123-in" to="bd5526fa-5cb7-4217-bc4a-c80a33c07643-km-25-gegen" priority="-1" spreadType="center" shape="17202.41,9332.78 17202.33,9333.34 17194.08,9395.08" bidi="07643-1">
        <lane id="07643-1-re_0" index="0" allow="rail rail_electric" speed="110.00" length="62.86" shape="17202.41,9332.78 17202.33,9333.34 17194.08,9395.08"/>
    </edge>
    <edge id="07643-2" from="bd5526fa-5cb7-4217-bc4a-c80a33c07643-km-87.85823641296123-in" to="1944c" priority="-1" spreadType="center" bidi="07643-2-re">
        <lane id="07643-2_0" index="0" allow="rail rail_electric" speed="110.00" length="25.00" shape="17202.41,9332.78 17206.04,9308.04"/>
    </edge>
    <edge id="07643-2-re" from="1944c" to="bd5526fa-5cb7-4217-bc4a-c80a33c07643-km-87.85823641296123-in" priority="-1" spreadType="center" bidi="07643-2">
        <lane id="07643-2-re_0" index="0" allow="rail rail_electric" speed="110.00" length="25.00" shape="17206.04,9308.04 17202.41,9332.78"/>
    </edge>
    <edge id="083cd-0" from="4a479" to="79bc0" priority="-1" spreadType="center" bidi="083cd-0-re">
        <lane id="083cd-0_0" index="0" allow="rail rail_electric" speed="110.00" length="42.91" shape="19635.55,4741.07 19609.07,4774.84"/>
    </edge>
    <edge id="083cd-0-re" from="79bc0" to="4a479" priority="-1" spreadType="center" bidi="083cd-0">
        <lane id="083cd-0-re_0" index="0" allow="rail rail_electric" speed="110.00" length="42.91" shape="19609.07,4774.84 19635.55,4741.07"/>
    </edge>
    <edge id="086c9-0" from="ee8d2" to="5a704e8d-5a14-4046-9ca6-d2fb720086c9-km-25-gegen" priority="-1" spreadType="center" bidi="086c9-0-re">
        <lane id="086c9-0_0" index="0" allow="rail rail_electric" speed="110.00" length="25.00" shape="18607.47,6503.60 18595.33,6525.29"/>
    </edge>
    <edge id="086c9-0-re" from="5a704e8d-5a14-4046-9ca6-d2fb720086c9-km-25-gegen" to="ee8d2" priority="-1" spreadType="center" bidi="086c9-0">
        <lane id="086c9-0-re_0" index="0" allow="rail rail_electric" speed="110.00" length="25.00" shape="18595.33,6525.29 18607.47,6503.60"/>
    </edge>
    <edge id="086c9-1" from="5a704e8d-5a14-4046-9ca6-d2fb720086c9-km-25-gegen" to="5a704e8d-5a14-4046-9ca6-d2fb720086c9-km-919.5733251131041-in" priority="-1" spreadType="center" shape="18595.33,6525.29 18521.75,6656.71 18411.70,6854.42 18220.96,7196.86 18188.26,7257.09 18172.57,7293.22 18166.39,7309.89" bidi="086c9-1-re">
        <lane id="086c9-1_0" index="0" allow="rail rail_electric" speed="110.00" length="894.57" shape="18595.33,6525.29 18521.75,6656.71 18411.70,6854.42 18220.96,7196.86 18188.26,7257.09 18172.57,7293.22 18166.39,7309.89"/>
    </edge>
    <edge id="086c9-1-re" from="5a704e8d-5a14-4046-9ca6-d2fb720086c9-km-919.5733251131041-in" to="5a704e8d-5a14-4046-9ca6-d2fb720086c9-km-25-gegen" priority="-1" spreadType="center" shape="18166.39,7309.89 18172.57,7293.22 18188.26,7257.09 18220.96,7196.86 18411.70,6854.42 18521.75,6656.71 18595.33,6525.29" bidi="086c9-1">
        <lane id="086c9-1-re_0" index="0" allow="rail rail_electric" speed="110.00" length="894.57" shape="18166.39,7309.89 18172.57,7293.22 18188.26,7257.09 18220.96,7196.86 18411.70,6854.42 18521.75,6656.71 18595.33,6525.29"/>
    </edge>
    <edge id="086c9-2" from="5a704e8d-5a14-4046-9ca6-d2fb720086c9-km-919.5733251131041-in" to="d59c6" priority="-1" spreadType="center" bidi="086c9-2-re">
        <lane id="086c9-2_0" index="0" allow="rail rail_electric" speed="110.00" length="25.00" shape="18166.39,7309.89 18157.69,7333.33"/>
    </edge>
    <edge id="086c9-2-re" from="d59c6" to="5a704e8d-5a14-4046-9ca6-d2fb720086c9-km-919.5733251131041-in" priority="-1" spreadType="center" bidi="086c9-2">
        <lane id="086c9-2-re_0" index="0" allow="rail rail_electric" speed="110.00" length="25.00" shape="18157.69,7333.33 18166.39,7309.89"/>
    </edge>
    <edge id="08eec-0" from="c2490" to="2d20d" priority="-1" spreadType="center" bidi="08eec-0-re">
        <lane id="08eec-0_0" index="0" allow="rail rail_electric" speed="110.00" length="48.05" shape="15173.96,8634.71 15217.16,8613.67"/>
    </edge>
    <edge id="08eec-0-re" from="2d20d" to="c2490" priority="-1" spreadType="center" bidi="08eec-0">