<?xml version="1.0" encoding="UTF-8"?>

<!-- generated on 2023-06-20 01:01:17 by Eclipse SUMO netedit Version 1.15.0
-->

<additional xmlns:xsi="http://www.w3.org/2001/XMLSchema-instance" xsi:noNamespaceSchemaLocation="http://sumo.dlr.de/xsd/additional_file.xsd">
    <!-- StoppingPlaces -->
    <busStop id="bs_0" lane="72421-2-re_0" startPos="300.33" endPos="400.33"/>
    <busStop id="bs_1" lane="3bcaf-4_0" startPos="1518.42" endPos="1618.42"/>
    <busStop id="bs_2" lane="d9ca5-10-re_0" startPos="704.88" endPos="804.88"/>
    <busStop id="bs_3" lane="be84c-2-re_0" startPos="744.09" endPos="844.09"/>
</additional>
