<nodes>
<node id="71999" x="-2502198.1259712474" y="3467432.6135298666" type="priority"/>
<node id="4b697" x="-2502011.2665268546" y="3467395.2331493422" type="priority"/>
<node id="1a3eb" x="-2501206.7425870663" y="3467286.4816527255" type="priority"/>
<node id="d44b6" x="-2501015.8400573703" y="3467247.8738794364" type="priority"/>
<node id="7e6a3" x="-2512719.9413880925" y="3471469.651634462" type="priority"/>
<node id="7a9c4" x="-2498540.5476426897" y="3466763.493575601" type="priority"/>
<node id="65995" x="-2498268.7242329344" y="3466698.8420863394" type="priority"/>
<node id="9897f" x="-2497040.462225618" y="3464885.774583213" type="priority"/>
<node id="b1da3" x="-2489701.959132096" y="3461908.236972917" type="priority"/>
<node id="8967f" x="-2496162.36354741" y="3464067.9474426806" type="priority"/>
<node id="ffb40" x="-2496131.913413137" y="3464011.285318941" type="priority"/>
<node id="3d6cd" x="-2495593.7788717486" y="3463048.5656199865" type="priority"/>
<node id="60557" x="-2495572.8213419244" y="3463024.2260274813" type="priority"/>
<node id="da46b" x="-2495551.4765986064" y="3462986.0530633815" type="priority"/>
<node id="a447a" x="-2495318.045403314" y="3462566.564838445" type="priority"/>
<node id="a5819" x="-2495275.3629092383" y="3462471.414769586" type="priority"/>
<node id="70571" x="-2503016.655225019" y="3464134.746397227" type="priority"/>
<node id="ccda9" x="-2502693.8192896284" y="3463742.3969481364" type="priority"/>
<node id="03a5e" x="-2504315.1983907623" y="3467381.2208863758" type="priority"/>
<node id="b014e" x="-2502769.909337136" y="3467539.54784913" type="priority"/>
<node id="c487c" x="-2502697.760225427" y="3467525.508187648" type="priority"/>
<node id="35575" x="-2502331.0863398113" y="3465252.720229972" type="priority"/>
<node id="d5261" x="-2497083.5450266902" y="3465548.59632976" type="priority"/>
<node id="26152" x="-2497069.432401452" y="3465359.2512058057" type="priority"/>
<node id="7b945" x="-2497065.8126140037" y="3465317.8648137003" type="priority"/>
<node id="92e22" x="-2497041.440397556" y="3464952.868824331" type="priority"/>
<node id="6b821" x="-2496371.0846978812" y="3462215.159929944" type="priority"/>
<node id="2b957" x="-2505087.779621272" y="3476302.8722677566" type="priority"/>
<node id="0c8c5" x="-2500331.6222948693" y="3467665.0683724526" type="priority"/>
<node id="ec6a3" x="-2498930.2773368666" y="3467393.8571683317" type="priority"/>
<node id="643ed" x="-2499734.4316743203" y="3467597.5212479085" type="priority"/>
<node id="26f28" x="-2498801.9523812663" y="3467368.3559434917" type="priority"/>
<node id="16160" x="-2498673.672173772" y="3467342.918289149" type="priority"/>
<node id="be136" x="-2498633.764461237" y="3467334.7586623207" type="priority"/>
<node id="ba40a" x="-2498322.0898685665" y="3467272.366575431" type="priority"/>
<node id="a700f" x="-2497075.666722486" y="3466204.615703579" type="priority"/>
<node id="70669" x="-2497061.9513066644" y="3465998.245421957" type="priority"/>
<node id="23c8a" x="-2497046.686252395" y="3465886.42595884" type="priority"/>
<node id="80d8b" x="-2496839.141787611" y="3464788.3996160217" type="priority"/>
<node id="5e97a" x="-2497034.3964527408" y="3465095.2528475393" type="priority"/>
<node id="182e8" x="-2497034.476685264" y="3465113.8737149425" type="priority"/>
<node id="07d5d" x="-2497036.8904120736" y="3465176.5016141534" type="priority"/>
<node id="e7848" x="-2498474.023222311" y="3467296.364572471" type="priority"/>
<node id="a9d88" x="-2498502.8837209274" y="3467301.8339138143" type="priority"/>
<node id="ff269" x="-2499122.972737599" y="3467285.5156779643" type="priority"/>
<node id="5fbaa" x="-2500467.12547502" y="3467481.454798378" type="priority"/>
<node id="411fe" x="-2500621.279613646" y="3467522.0178021565" type="priority"/>
<node id="d9d18" x="-2500688.69755912" y="3467535.5087439455" type="priority"/>
<node id="70bfd" x="-2499058.3062147787" y="3467298.44711807" type="priority"/>
<node id="ac994" x="-2499185.6098045795" y="3467278.6828434244" type="priority"/>
<node id="c7dbd" x="-2500527.036509263" y="3467513.3747138754" type="priority"/>
<node id="10cdb" x="-2500794.82872739" y="3467557.0308718607" type="priority"/>
<node id="0678f" x="-2497081.371683648" y="3466118.72485717" type="priority"/>
<node id="209fe" x="-2497079.513382663" y="3466093.0951234326" type="priority"/>
<node id="83b6b" x="-2497044.272146808" y="3465809.0541065633" type="priority"/>
<node id="e2f21" x="-2497031.567065511" y="3465228.4608678035" type="priority"/>
<node id="0dd8d" x="-2510240.9662581966" y="3474720.4712533355" type="priority"/>
<node id="c3b19" x="-2511391.3338029822" y="3474562.950958945" type="priority"/>
<node id="8cd7e" x="-2510245.662993203" y="3474727.392789837" type="priority"/>
<node id="21c7c" x="-2511393.3916760907" y="3474581.521062631" type="priority"/>
<node id="20f40" x="-2510252.234697872" y="3474745.399613401" type="priority"/>
<node id="d6ea9" x="-2511302.4917079033" y="3474608.8780441917" type="priority"/>
<node id="a7060" x="-2511596.435183835" y="3474523.0526766293" type="priority"/>
<node id="1b2f4" x="-2511637.353750039" y="3474514.3728308342" type="priority"/>
<node id="f18a7" x="-2511945.9010706507" y="3474449.094972007" type="priority"/>
<node id="a1e85" x="-2512976.3219787627" y="3474229.810673248" type="priority"/>
<node id="ae5cd" x="-2510248.4470939524" y="3474740.150741745" type="priority"/>
<node id="ff94e" x="-2511636.260820482" y="3474506.7017702814" type="priority"/>
<node id="6d264" x="-2511818.8553824327" y="3474441.80586778" type="priority"/>
<node id="82b51" x="-2512934.1167276725" y="3474205.2315768413" type="priority"/>
<node id="add8b" x="-2512779.8066316177" y="3475121.122062348" type="priority"/>
<node id="e8db1" x="-2512760.1821468486" y="3474711.772431787" type="priority"/>
<node id="4ecce" x="-2501328.4788967334" y="3467357.3175123837" type="priority"/>
<node id="553b0" x="-2501684.7521156543" y="3467394.7215760183" type="priority"/>
<node id="ff7e5" x="-2500242.037771492" y="3467093.7651768364" type="priority"/>
<node id="5efb6" x="-2500319.680610776" y="3467109.5255813543" type="priority"/>
<node id="7d0bb" x="-2501777.896236745" y="3467364.0153826177" type="priority"/>
<node id="4a137" x="-2501754.2676406577" y="3467336.9699903987" type="priority"/>
<node id="70d27" x="-2500035.815226407" y="3467033.3977266587" type="priority"/>
<node id="7aa86" x="-2499987.2606878616" y="3467020.5960581973" type="priority"/>
<node id="aa7c6" x="-2501657.209204673" y="3467317.685615007" type="priority"/>
<node id="904e3" x="-2498792.813900535" y="3466804.0676157624" type="priority"/>
<node id="70126" x="-2498747.896184812" y="3466795.4682170525" type="priority"/>
<node id="bba3f" x="-2498576.533874395" y="3466770.6508105323" type="priority"/>
<node id="c4b31" x="-2504532.135782785" y="3467134.577269122" type="priority"/>
<node id="92854" x="-2502942.7578787245" y="3467580.7814067304" type="priority"/>
<node id="0bb62" x="-2502538.003529084" y="3467500.4087809734" type="priority"/>
<node id="58fdd" x="-2501238.068363766" y="3467195.8273923304" type="priority"/>
<node id="791a3" x="-2500086.6201245924" y="3466993.104762394" type="priority"/>
<node id="e60a4" x="-2497145.9843781404" y="3466029.3686044663" type="priority"/>
<node id="d5dd2" x="-2497088.9501798907" y="3465468.2819657978" type="priority"/>
<node id="6c7a2" x="-2497086.7154849526" y="3465444.6221221574" type="priority"/>
<node id="dd66d" x="-2497048.0897726333" y="3464789.1964890845" type="priority"/>
<node id="fcb25" x="-2501019.4484493495" y="3467145.3520164676" type="priority"/>
<node id="599b2" x="-2500964.0177881164" y="3467134.394900754" type="priority"/>
<node id="c6306" x="-2500945.8398047495" y="3467130.3834230658" type="priority"/>
<node id="3e797" x="-2500537.1668997267" y="3467041.739925705" type="priority"/>
<node id="db752" x="-2502140.607585787" y="3467009.258268984" type="priority"/>
<node id="78091" x="-2501902.6682683397" y="3467155.3962777425" type="priority"/>
<node id="77d6f" x="-2501876.6911785286" y="3467167.961622523" type="priority"/>
<node id="8b088" x="-2502296.8434519805" y="3466985.2674493976" type="priority"/>
<node id="8c3fe" x="-2501697.276335168" y="3467273.4409432486" type="priority"/>
<node id="28ee3" x="-2501650.6815732657" y="3466684.869721353" type="priority"/>
<node id="da3a5" x="-2501624.060727443" y="3466829.677900173" type="priority"/>
<node id="f7fcc" x="-2501680.7138658036" y="3466373.8661059476" type="priority"/>
<node id="0fb43" x="-2501493.2956323167" y="3467121.0775837004" type="priority"/>
<node id="e6830" x="-2501744.289997234" y="3466530.6026572026" type="priority"/>
<node id="4b4d2" x="-2501710.391489074" y="3466704.9391898736" type="priority"/>
<node id="38a97" x="-2501529.190183764" y="3467101.7202721536" type="priority"/>
<node id="c8081" x="-2501922.069804659" y="3466567.395823231" type="priority"/>
<node id="4c4e0" x="-2501337.145217537" y="3467201.348699242" type="priority"/>
<node id="1c9ae" x="-2501763.6837564292" y="3466533.9368123524" type="priority"/>
<node id="f74de" x="-2501720.43328375" y="3466759.532188477" type="priority"/>
<node id="32e46" x="-2501712.360935439" y="3466804.2715751827" type="priority"/>
<node id="ebc0a" x="-2501706.8819281883" y="3466830.976493396" type="priority"/>
<node id="a4b4d" x="-2501125.7703343397" y="3467160.181888856" type="priority"/>
<node id="eaa20" x="-2501777.445023643" y="3466536.7739858255" type="priority"/>
<node id="23ac3" x="-2502264.2091842024" y="3466495.995213615" type="priority"/>
<node id="3fee2" x="-2502179.063329198" y="3466795.7862002067" type="priority"/>
<node id="0787c" x="-2502426.18147228" y="3466630.327128837" type="priority"/>
<node id="47fd7" x="-2502396.210123115" y="3466792.4429140612" type="priority"/>
<node id="e97f8" x="-2502347.0117528103" y="3466997.3510241583" type="priority"/>
<node id="5f03a" x="-2502196.308018569" y="3466621.1122773997" type="priority"/>
<node id="6a8c2" x="-2502193.461638051" y="3466631.626261197" type="priority"/>
<node id="8bcb3" x="-2502143.621743397" y="3466897.591371428" type="priority"/>
<node id="ff5d6" x="-2502032.9887696807" y="3467060.3857934363" type="priority"/>
<node id="4e6f0" x="-2502104.20205436" y="3466697.812655138" type="priority"/>
<node id="72d3e" x="-2502059.856354531" y="3466821.6534300186" type="priority"/>
<node id="bd856" x="-2502175.513446559" y="3466423.7868222147" type="priority"/>
<node id="c6813" x="-2502115.3299532533" y="3466748.0320522245" type="priority"/>
<node id="3f4e6" x="-2502101.580005467" y="3466817.306475252" type="priority"/>
<node id="66112" x="-2501971.2095116135" y="3467098.5233909674" type="priority"/>
<node id="4cded" x="-2501319.763720846" y="3466113.1733392067" type="priority"/>
<node id="07011" x="-2500517.832227069" y="3465953.217893377" type="priority"/>
<node id="c8c5b" x="-2500494.9040944874" y="3465948.763626851" type="priority"/>
<node id="ba213" x="-2499245.899891342" y="3465699.164659325" type="priority"/>
<node id="92ce7" x="-2499165.494184752" y="3465683.0554291047" type="priority"/>
<node id="333eb" x="-2497204.3004997536" y="3465104.3814553507" type="priority"/>
<node id="0ae00" x="-2497169.6536659617" y="3465068.7210674062" type="priority"/>
<node id="2b525" x="-2497122.5301065864" y="3465020.2126707323" type="priority"/>
<node id="df3c3" x="-2497092.3331611417" y="3464988.913541883" type="priority"/>
<node id="0ccbc" x="-2502163.1166324574" y="3466615.9578118045" type="priority"/>
<node id="24a64" x="-2502146.380281931" y="3466692.437746402" type="priority"/>
<node id="f1446" x="-2502004.1156529263" y="3467079.2237080634" type="priority"/>
<node id="8e180" x="-2501946.2559185144" y="3467119.9729578868" type="priority"/>
<node id="0ed2a" x="-2502035.179510073" y="3466953.720254125" type="priority"/>
<node id="dc975" x="-2502039.6703122333" y="3466815.522835098" type="priority"/>
<node id="205e8" x="-2502415.725635588" y="3466534.426219873" type="priority"/>
<node id="12b61" x="-2502392.378098986" y="3466637.476983305" type="priority"/>
<node id="00e3b" x="-2502366.11307777" y="3466506.680066716" type="priority"/>
<node id="057b4" x="-2502373.05819288" y="3466698.882818604" type="priority"/>
<node id="1e968" x="-2502371.8654937446" y="3466743.8707162887" type="priority"/>
<node id="9af8d" x="-2502327.856385761" y="3467091.0930207" type="priority"/>
<node id="ccf66" x="-2502155.4825332584" y="3466418.8656558674" type="priority"/>
<node id="eb428" x="-2502120.348277408" y="3466610.478278082" type="priority"/>
<node id="42c3e" x="-2502004.7254889393" y="3467057.474465305" type="priority"/>
<node id="e283d" x="-2502274.909523157" y="3466441.931047963" type="priority"/>
<node id="28653" x="-2502241.5530133173" y="3466610.4527390935" type="priority"/>
<node id="9f477" x="-2502405.618189915" y="3466514.8940865733" type="priority"/>
<node id="c0d3d" x="-2502382.248735631" y="3466689.5296953134" type="priority"/>
<node id="31610" x="-2502386.305213283" y="3466472.9742512926" type="priority"/>
<node id="65f8f" x="-2502159.1880519367" y="3466730.40437592" type="priority"/>
<node id="1e447" x="-2502376.495494061" y="3466508.5431318767" type="priority"/>
<node id="95fad" x="-2502134.2051899796" y="3466318.141179178" type="priority"/>
<node id="8eb54" x="-2502079.836370158" y="3466610.6739858706" type="priority"/>
<node id="96aa4" x="-2501959.7977401027" y="3467093.8280715384" type="priority"/>
<node id="bbcf8" x="-2501904.6489988053" y="3467149.5948153846" type="priority"/>
<node id="1e6e0" x="-2502175.0134509844" y="3466617.865525743" type="priority"/>
<node id="5909f" x="-2502426.2697699536" y="3466571.6614228263" type="priority"/>
<node id="56296" x="-2501469.6870547943" y="3467227.511225432" type="priority"/>
<node id="8ce61" x="-2502075.0767440414" y="3466742.1292436756" type="priority"/>
<node id="39e9f" x="-2501835.4123011427" y="3467190.3777276687" type="priority"/>
<node id="2528e" x="-2497143.794719425" y="3465948.73512451" type="priority"/>
<node id="02d9d" x="-2497132.3220519754" y="3465853.345857827" type="priority"/>
<node id="4934a" x="-2497399.9460014245" y="3466249.861195907" type="priority"/>
<node id="fc9d2" x="-2497149.649063905" y="3465352.3630035" type="priority"/>
<node id="c72a2" x="-2497133.5087779313" y="3465689.7527575064" type="priority"/>
<node id="da11e" x="-2499933.497298293" y="3466716.8773393985" type="priority"/>
<node id="8320b" x="-2499791.7300786497" y="3466680.869429596" type="priority"/>
<node id="11fd0" x="-2499725.5267212912" y="3466667.651260499" type="priority"/>
<node id="48fc7" x="-2500347.194490565" y="3466792.1838354766" type="priority"/>
<node id="66a40" x="-2499363.4551208387" y="3466595.3147694953" type="priority"/>
<node id="1d8e0" x="-2499216.173703855" y="3466574.0555006154" type="priority"/>
<node id="a4bdc" x="-2498544.7045766423" y="3466439.4414213765" type="priority"/>
<node id="c0a13" x="-2498790.7462727297" y="3466488.44421196" type="priority"/>
<node id="c7980" x="-2499373.4295576965" y="3466605.18233002" type="priority"/>
<node id="66fae" x="-2497205.915220146" y="3465266.662843976" type="priority"/>
<node id="be612" x="-2497170.276314982" y="3465678.4132640623" type="priority"/>
<node id="2dece" x="-2497450.1151900133" y="3465629.8366227727" type="priority"/>
<node id="91d6a" x="-2497203.1645670193" y="3465406.208262656" type="priority"/>
<node id="66146" x="-2497219.050228627" y="3465210.1170742437" type="priority"/>
<node id="f18f9" x="-2499521.203549221" y="3466030.0827575624" type="priority"/>
<node id="7901f" x="-2499244.908203954" y="3465982.39859885" type="priority"/>
<node id="2a48e" x="-2497156.9617540427" y="3465675.0170060694" type="priority"/>
<node id="e85ad" x="-2499528.032046064" y="3466046.3089350425" type="priority"/>
<node id="34584" x="-2499125.76396955" y="3465958.2609903608" type="priority"/>
<node id="6de0c" x="-2499791.338333782" y="3466098.743748419" type="priority"/>
<node id="25dfb" x="-2497137.7616528636" y="3465646.0047757365" type="priority"/>
<node id="91cee" x="-2497171.117496968" y="3465228.238886643" type="priority"/>
<node id="01375" x="-2499298.6496105934" y="3465694.4475161415" type="priority"/>
<node id="51b84" x="-2500210.6977543496" y="3465810.6139307395" type="priority"/>
<node id="91c0a" x="-2501342.5996287474" y="3466098.326983515" type="priority"/>
<node id="ccfd2" x="-2500697.083219998" y="3465978.0314141046" type="priority"/>
<node id="7ca9f" x="-2500285.9093762366" y="3465889.6220059767" type="priority"/>
<node id="323aa" x="-2499564.0545977755" y="3465741.1662370935" type="priority"/>
<node id="10a8d" x="-2499447.5332054095" y="3465726.03474259" type="priority"/>
<node id="7281b" x="-2500328.374749246" y="3465903.7059383243" type="priority"/>
<node id="5e416" x="-2500626.850000117" y="3465968.7158068195" type="priority"/>
<node id="c019d" x="-2499347.6567607387" y="3465713.339758029" type="priority"/>
<node id="df67f" x="-2500371.2872047722" y="3465916.662524808" type="priority"/>
<node id="852fb" x="-2497032.1762321307" y="3465031.2643794306" type="priority"/>
<node id="e62e3" x="-2497472.7811396564" y="3465193.0460301824" type="priority"/>
<node id="f9887" x="-2497573.7063837387" y="3465213.3447800055" type="priority"/>
<node id="4bf4a" x="-2499220.270905157" y="3465537.488286007" type="priority"/>
<node id="67558" x="-2500217.2753636525" y="3465717.1113486495" type="priority"/>
<node id="1d11a" x="-2501344.133527916" y="3466090.5010690596" type="priority"/>
<node id="60ff9" x="-2500219.4583271053" y="3465707.8080536574" type="priority"/>
<node id="65f43" x="-2499302.4653599816" y="3465542.4335637204" type="priority"/>
<node id="a5c0d" x="-2496392.482550152" y="3464409.1616137195" type="priority"/>
<node id="c47f6" x="-2500455.290700917" y="3465841.111889148" type="priority"/>
<node id="a52f8" x="-2496478.8853785745" y="3464480.6808580644" type="priority"/>
<node id="8dc5d" x="-2496271.127597226" y="3464260.7358813863" type="priority"/>
<node id="4bfb2" x="-2500222.776210163" y="3465336.513004774" type="priority"/>
<node id="3b8d9" x="-2501440.975885326" y="3465579.4777133316" type="priority"/>
<node id="ecc05" x="-2497469.054171673" y="3464772.2844499424" type="priority"/>
<node id="46362" x="-2501063.9271816276" y="3465491.664399227" type="priority"/>
<node id="426fc" x="-2499919.7006349554" y="3465256.5560598467" type="priority"/>
<node id="3b9c3" x="-2499853.8393839174" y="3465243.4680941906" type="priority"/>
<node id="b7c0f" x="-2498564.9371853014" y="3464991.735819135" type="priority"/>
<node id="97f82" x="-2498730.112678836" y="3465048.2668188624" type="priority"/>
<node id="f600b" x="-2498846.6657910235" y="3465078.808473071" type="priority"/>
<node id="92a72" x="-2499664.081616522" y="3465247.067577705" type="priority"/>
<node id="09936" x="-2500314.843539009" y="3465362.725558307" type="priority"/>
<node id="8a28c" x="-2500393.8304586653" y="3465385.243635591" type="priority"/>
<node id="0399a" x="-2500490.6643478796" y="3465412.951423846" type="priority"/>
<node id="444af" x="-2500581.651850404" y="3465439.248218905" type="priority"/>
<node id="bd80c" x="-2501069.2672838895" y="3465535.8845028616" type="priority"/>
<node id="eba42" x="-2501157.2654937003" y="3465546.291220553" type="priority"/>
<node id="ba978" x="-2501238.776961823" y="3465555.3941999767" type="priority"/>
<node id="6af8c" x="-2501344.1375087863" y="3465567.8203639835" type="priority"/>
<node id="adb65" x="-2501527.7530263374" y="3465591.1436098553" type="priority"/>
<node id="efa13" x="-2498399.0620179297" y="3464966.5934537556" type="priority"/>
<node id="5a2b3" x="-2498247.2026824923" y="3464943.389600482" type="priority"/>
<node id="ce47c" x="-2499723.1615369674" y="3465350.2217366137" type="priority"/>
<node id="b1bd6" x="-2498928.8196426025" y="3465143.5410895273" type="priority"/>
<node id="49517" x="-2499732.8771680477" y="3465211.7808217797" type="priority"/>
<node id="4789d" x="-2500351.19720183" y="3465138.3643000424" type="priority"/>
<node id="aad1f" x="-2500842.458193195" y="3465123.67651264" type="priority"/>
<node id="61e3c" x="-2498656.1315699816" y="3465047.7082444504" type="priority"/>
<node id="42790" x="-2498428.4372277893" y="3465011.1406824104" type="priority"/>
<node id="c3d1f" x="-2498543.3659554524" y="3464987.752306089" type="priority"/>
<node id="7225c" x="-2498410.6529492233" y="3464968.3725912534" type="priority"/>
<node id="36d98" x="-2498642.4086126355" y="3464995.169588346" type="priority"/>
<node id="48c41" x="-2498435.2430556295" y="3464966.056073189" type="priority"/>
<node id="5d3a0" x="-2497796.241518814" y="3464845.657712467" type="priority"/>
<node id="ba2c6" x="-2497995.812680618" y="3464892.9070885703" type="priority"/>
<node id="9882d" x="-2498079.3433126807" y="3464910.0028475225" type="priority"/>
<node id="3be0a" x="-2499754.4980890914" y="3465253.458518235" type="priority"/>
<node id="3dfda" x="-2499720.2713008802" y="3465364.9272731654" type="priority"/>
<node id="671a9" x="-2499078.76407652" y="3465213.091662962" type="priority"/>
<node id="131e6" x="-2497171.4242121903" y="3464712.710038595" type="priority"/>
<node id="d2068" x="-2498018.124519551" y="3464882.656651452" type="priority"/>
<node id="d6b53" x="-2498409.7146241316" y="3464961.119116092" type="priority"/>
<node id="c9dde" x="-2500038.1764762225" y="3465286.49778001" type="priority"/>
<node id="5d0fe" x="-2501677.2740142345" y="3465621.0878908224" type="priority"/>
<node id="193bf" x="-2499035.5600242857" y="3465192.0569738783" type="priority"/>
<node id="363e9" x="-2499717.8787203105" y="3465357.1927763335" type="priority"/>
<node id="9dd6b" x="-2498357.585787524" y="3464994.9999229033" type="priority"/>
<node id="f9ef9" x="-2498257.5547529506" y="3464937.8396973126" type="priority"/>
<node id="94c70" x="-2498473.3529590582" y="3464980.960850954" type="priority"/>
<node id="37f03" x="-2500116.2493045893" y="3465309.264609905" type="priority"/>
<node id="78058" x="-2501997.043089381" y="3465684.6743676662" type="priority"/>
<node id="654fb" x="-2497859.7851326135" y="3464733.1692206264" type="priority"/>
<node id="57d96" x="-2497605.3403848084" y="3464706.5933382437" type="priority"/>
<node id="83fba" x="-2500838.73179714" y="3465130.421123076" type="priority"/>
<node id="2855a" x="-2498486.6854840624" y="3464997.4152682982" type="priority"/>
<node id="e801e" x="-2498843.15117062" y="3465115.365917515" type="priority"/>
<node id="7645e" x="-2497862.2056780225" y="3464727.4747702666" type="priority"/>
<node id="a2087" x="-2497562.076438208" y="3464711.807453286" type="priority"/>
<node id="b81ac" x="-2499823.7773018163" y="3465261.0986280832" type="priority"/>
<node id="051ce" x="-2498654.6924717706" y="3465055.902326323" type="priority"/>
<node id="7c7e8" x="-2497029.583045727" y="3465740.63313126" type="priority"/>
<node id="c0732" x="-2497019.16572034" y="3465320.153259957" type="priority"/>
<node id="538b2" x="-2496994.5833136863" y="3465037.1935659833" type="priority"/>
<node id="2e887" x="-2497022.089669476" y="3465697.0474045835" type="priority"/>
<node id="ca008" x="-2497002.357535231" y="3465101.707675822" type="priority"/>
<node id="90255" x="-2502696.4974708008" y="3465323.101802159" type="priority"/>
<node id="f8d15" x="-2503029.198994266" y="3465439.641080465" type="priority"/>
<node id="23f1f" x="-2503162.9027904863" y="3465508.042399546" type="priority"/>
<node id="7e611" x="-2502481.0542537933" y="3465277.5156857613" type="priority"/>
<node id="26f5a" x="-2502795.547632632" y="3463957.7927238196" type="priority"/>
<node id="450ba" x="-2510029.5778805846" y="3470763.5839866027" type="priority"/>
<node id="8c437" x="-2510011.462327362" y="3470764.367553279" type="priority"/>
<node id="6b883" x="-2507071.6603851737" y="3470921.6658086926" type="priority"/>
<node id="2d35a" x="-2506745.7026223904" y="3470938.9491884243" type="priority"/>
<node id="6e8ce" x="-2502019.0771156233" y="3470252.137625359" type="priority"/>
<node id="fa8d9" x="-2503242.8918415094" y="3469060.4349063914" type="priority"/>
<node id="da022" x="-2512981.1178559447" y="3474221.0421557482" type="priority"/>
<node id="b2e71" x="-2511911.906999753" y="3474443.313762184" type="priority"/>
<node id="577aa" x="-2506878.599634827" y="3470925.1383556854" type="priority"/>
<node id="70004" x="-2513227.7933072317" y="3474176.384022422" type="priority"/>
<node id="a8b7f" x="-2513452.729365131" y="3474120.2827086374" type="priority"/>
<node id="a0f96" x="-2513956.5349061964" y="3474011.496710539" type="priority"/>
<node id="ece8f" x="-2503110.3973295586" y="3469109.693408491" type="priority"/>
<node id="4d985" x="-2504438.652426853" y="3467255.4059214815" type="priority"/>
<node id="67852" x="-2504374.9119185964" y="3467310.9570675306" type="priority"/>
<node id="7f39e" x="-2506897.576489731" y="3470923.94859411" type="priority"/>
<node id="8f7a0" x="-2513137.4689042326" y="3474195.138573006" type="priority"/>
<node id="12f68" x="-2513231.3287770273" y="3474182.09892728" type="priority"/>
<node id="b8c6a" x="-2513903.849375383" y="3474037.2808133326" type="priority"/>
<node id="1faaf" x="-2510184.0465596407" y="3470747.964806333" type="priority"/>
<node id="02c9d" x="-2513689.915488122" y="3474093.829574" type="priority"/>
<node id="cec3c" x="-2502065.2522903276" y="3470168.942464657" type="priority"/>
<node id="c7620" x="-2509861.901063177" y="3470765.0463756174" type="priority"/>
<node id="0b35f" x="-2496006.989502619" y="3463883.1823067702" type="priority"/>
<node id="3ed6c" x="-2496089.0351801887" y="3463971.1033255383" type="priority"/>
<node id="f8280" x="-2495343.4118612176" y="3462577.7074086536" type="priority"/>
<node id="55c83" x="-2495573.1201530397" y="3462989.4548847824" type="priority"/>
<node id="2396f" x="-2495598.228702453" y="3463022.323495075" type="priority"/>
<node id="c4d04" x="-2495645.181781999" y="3463081.857124891" type="priority"/>
<node id="f2914" x="-2495683.0120858923" y="3463128.253511764" type="priority"/>
<node id="120d4" x="-2495756.6515571824" y="3463239.3292278834" type="priority"/>
<node id="4c2b3" x="-2495799.7187063918" y="3463297.7141905986" type="priority"/>
<node id="217ce" x="-2496170.414752164" y="3464053.1164731644" type="priority"/>
<node id="2088b" x="-2496189.9491402684" y="3464095.010812979" type="priority"/>
<node id="d6691" x="-2496047.946566309" y="3463987.963426996" type="priority"/>
<node id="5ff69" x="-2495752.794087845" y="3463427.202008292" type="priority"/>
<node id="28389" x="-2496122.674292666" y="3463956.366785735" type="priority"/>
<node id="b3365" x="-2496149.3439568244" y="3464023.7231708337" type="priority"/>
<node id="b8bc0" x="-2495606.485716856" y="3463145.215918407" type="priority"/>
<node id="ebf12" x="-2495261.229438333" y="3462466.0142964143" type="priority"/>
<node id="e01ce" x="-2496096.6505978564" y="3463962.0940786544" type="priority"/>
<node id="bedf6" x="-2496933.057665231" y="3464015.7976428904" type="priority"/>
<node id="5f040" x="-2496117.0388365425" y="3463965.461119838" type="priority"/>
<node id="046a2" x="-2496095.028701416" y="3463911.712106731" type="priority"/>
<node id="b8c70" x="-2495614.818625345" y="3463161.496418901" type="priority"/>
<node id="6de95" x="-2496065.2922661453" y="3463987.539095886" type="priority"/>
<node id="8c5e1" x="-2496023.047942456" y="3463660.0042247213" type="priority"/>
<node id="f5b13" x="-2495572.6363040167" y="3462964.70509501" type="priority"/>
<node id="ac38b" x="-2494713.026753153" y="3461444.7782267276" type="priority"/>
<node id="c7689" x="-2494587.702797395" y="3461220.7356630564" type="priority"/>
<node id="4e334" x="-2493992.347007582" y="3460151.181732837" type="priority"/>
<node id="749e8" x="-2496022.1686638147" y="3463857.939762192" type="priority"/>
<node id="2d733" x="-2495566.34364703" y="3463036.3671935797" type="priority"/>
<node id="1cf03" x="-2494739.0488244556" y="3461492.380455587" type="priority"/>
<node id="ce3b0" x="-2495512.321115859" y="3462879.537939308" type="priority"/>
<node id="ddd05" x="-2496074.002369336" y="3463773.884452071" type="priority"/>
<node id="012fd" x="-2494784.4372097515" y="3461589.282897599" type="priority"/>
<node id="93109" x="-2495573.5172034074" y="3463060.3784170933" type="priority"/>
<node id="b051d" x="-2494623.3889535125" y="3461300.334001044" type="priority"/>
<node id="7c0b4" x="-2494652.6085109063" y="3461352.990545273" type="priority"/>
<node id="2720c" x="-2494613.886800603" y="3461298.6869514007" type="priority"/>
<node id="ddd5c" x="-2494010.8979155384" y="3460216.282936938" type="priority"/>
<node id="eeaf4" x="-2493990.2466110038" y="3460160.6903936304" type="priority"/>
<node id="e65e4" x="-2493935.194110292" y="3460026.1371375434" type="priority"/>
<node id="17fec" x="-2495643.0004021823" y="3463115.443052143" type="priority"/>
<node id="c0128" x="-2495439.7341022994" y="3462750.7966911606" type="priority"/>
<node id="4a0a9" x="-2498595.247106239" y="3465410.8563763015" type="priority"/>
<node id="613bd" x="-2499058.4256832474" y="3465503.1798277535" type="priority"/>
<node id="547f0" x="-2497544.1532296548" y="3465203.09484528" type="priority"/>
<node id="f9fd8" x="-2499107.4711749675" y="3467499.6182817034" type="priority"/>
<node id="eea1a" x="-2501503.2038617563" y="3470966.5407436714" type="priority"/>
<node id="ef766" x="-2501413.8836531714" y="3471729.3838014156" type="priority"/>
<node id="b421a" x="-2501022.1733663697" y="3472380.175534129" type="priority"/>
<node id="665ba" x="-2499501.693548212" y="3474713.697148584" type="priority"/>
<node id="e1951" x="-2498956.2532133395" y="3474997.810717646" type="priority"/>
<node id="df460" x="-2487668.1111592418" y="3475118.8188576773" type="priority"/>
<node id="31d77" x="-2496304.401592954" y="3462020.9167062044" type="priority"/>
<node id="eec1f" x="-2495007.9492435856" y="3461463.96184716" type="priority"/>
<node id="e7ffe" x="-2496330.6047091326" y="3462111.353475254" type="priority"/>