<?xml version="1.0" encoding="UTF-8"?>
<routes xmlns:xsi="http://www.w3.org/2001/XMLSchema-instance" xsi:noNamespaceSchemaLocation="http://sumo.dlr.de/xsd/routes_file.xsd">
	<route edges="09c30-1 09c30-2 c8d27-2-re c8d27-1-re" color="73,249,223" id="route_B7334788-81B3-4533-895A-F1AD8EA09C30-KM-321.5762856547864-IN-4A9DFF85-96F1-4DCE-B23C-D3BA643C8D27-KM-25-GEGEN"/>
	<route edges="09c30-1 09c30-2 89e0c-2-re 89e0c-1-re" color="81,195,129" id="route_B7334788-81B3-4533-895A-F1AD8EA09C30-KM-321.5762856547864-IN-8484145B-1505-4F45-80B0-5E9909D89E0C-KM-25-GEGEN"/>
	<route edges="09c30-1-re 09c30-0-re 7b7cc-0 7b7cc-1" color="71,54,48" id="route_B7334788-81B3-4533-895A-F1AD8EA09C30-KM-25-GEGEN-BA60748F-0E73-4DAD-B156-84D78397B7CC-KM-852.2588211144425-IN"/>
	<route edges="09c30-1-re 09c30-0-re 8541e-0 8541e-1" color="98,81,78" id="route_B7334788-81B3-4533-895A-F1AD8EA09C30-KM-25-GEGEN-C99B5A4E-BD8D-4045-A778-5CB27CA8541E-KM-165.5616561823125-IN"/>
	<route edges="8541e-1 8541e-2 7943a-0 7943a-1" color="34,215,4" id="route_C99B5A4E-BD8D-4045-A778-5CB27CA8541E-KM-165.5616561823125-IN-3DEED310-2361-440C-87A9-2EC60DD7943A-KM-788.1457216628645-IN"/>
	<route edges="8541e-1 8541e-2 a4d8d-0 a4d8d-1" color="223,158,210" id="route_C99B5A4E-BD8D-4045-A778-5CB27CA8541E-KM-165.5616561823125-IN-605543F3-532E-4BE3-942F-D8CD988A4D8D-KM-238.52550007798908-IN"/>
	<route edges="8541e-1-re 8541e-0-re 09c30-0 09c30-1" color="24,183,165" id="route_C99B5A4E-BD8D-4045-A778-5CB27CA8541E-KM-25-GEGEN-B7334788-81B3-4533-895A-F1AD8EA09C30-KM-321.5762856547864-IN"/>
	<route edges="7b7cc-1-re 7b7cc-0-re 09c30-0 09c30-1" color="78,71,207" id="route_BA60748F-0E73-4DAD-B156-84D78397B7CC-KM-25-GEGEN-B7334788-81B3-4533-895A-F1AD8EA09C30-KM-321.5762856547864-IN"/>
	<route edges="7943a-1 7943a-2 5fd96-0 5fd96-1" color="184,9,77" id="route_3DEED310-2361-440C-87A9-2EC60DD7943A-KM-788.1457216628645-IN-5BB6E1BC-3A48-41DC-832C-78DF7265FD96-KM-169.7673894741766-IN"/>
	<route edges="7943a-1-re 7943a-0-re 8541e-2-re 8541e-1-re" color="226,83,199" id="route_3DEED310-2361-440C-87A9-2EC60DD7943A-KM-25-GEGEN-C99B5A4E-BD8D-4045-A778-5CB27CA8541E-KM-25-GEGEN"/>
	<route edges="a4d8d-1 a4d8d-2 0353c-0 7e743-2-re 7e743-1-re" color="128,129,214" id="route_605543F3-532E-4BE3-942F-D8CD988A4D8D-KM-238.52550007798908-IN-B4FF94F1-8074-4838-81DD-ECFF5F87E743-KM-25-GEGEN"/>
	<route edges="a4d8d-1 a4d8d-2 0353c-0 fca56-2-re fca56-1-re" color="56,180,242" id="route_605543F3-532E-4BE3-942F-D8CD988A4D8D-KM-238.52550007798908-IN-A57DE870-0465-4BED-BFF5-CF3C94DFCA56-KM-25-GEGEN"/>
	<route edges="a4d8d-1-re a4d8d-0-re 8541e-2-re 8541e-1-re" color="188,195,116" id="route_605543F3-532E-4BE3-942F-D8CD988A4D8D-KM-25-GEGEN-C99B5A4E-BD8D-4045-A778-5CB27CA8541E-KM-25-GEGEN"/>
	<route edges="5fd96-1 5fd96-2 aa8a0-0 aa8a0-1" color="93,51,105" id="route_5BB6E1BC-3A48-41DC-832C-78DF7265FD96-KM-169.7673894741766-IN-8C4741F6-2412-4953-9404-25810CEAA8A0-KM-684.7733628877847-IN"/>
	<route edges="5fd96-1-re 5fd96-0-re 7943a-2-re 7943a-1-re" color="0,87,225" id="route_5BB6E1BC-3A48-41DC-832C-78DF7265FD96-KM-25-GEGEN-3DEED310-2361-440C-87A9-2EC60DD7943A-KM-25-GEGEN"/>
	<route edges="cc84d-1-re cc84d-0-re 5fd96-0 5fd96-1" color="248,39,84" id="route_748C5B74-FE19-413E-9802-60CF955CC84D-KM-25-GEGEN-5BB6E1BC-3A48-41DC-832C-78DF7265FD96-KM-169.7673894741766-IN"/>
	<route edges="aa8a0-1 aa8a0-2 3c097-0-re 6e556-0 6e556-1" color="219,240,231" id="route_8C4741F6-2412-4953-9404-25810CEAA8A0-KM-684.7733628877847-IN-7000F262-80C6-4B69-84F4-A63C0496E556-KM-1671.7895552905081-IN"/>
	<route edges="aa8a0-1 aa8a0-2 3c097-0-re 4aeb8-0 4aeb8-1" color="110,111,28" id="route_8C4741F6-2412-4953-9404-25810CEAA8A0-KM-684.7733628877847-IN-61CB046F-B771-48DF-914A-6B419EF4AEB8-KM-1452.8979874733736-IN"/>
	<route edges="aa8a0-1 aa8a0-2 957eb-0 957eb-1" color="112,98,150" id="route_8C4741F6-2412-4953-9404-25810CEAA8A0-KM-684.7733628877847-IN-193950B3-3903-4C8C-81BB-3B099DE957EB-KM-268.8995167296298-IN"/>
	<route edges="aa8a0-1-re aa8a0-0-re 5fd96-2-re 5fd96-1-re" color="11,2,197" id="route_8C4741F6-2412-4953-9404-25810CEAA8A0-KM-25-GEGEN-5BB6E1BC-3A48-41DC-832C-78DF7265FD96-KM-25-GEGEN"/>
	<route edges="e96d0-1-re e96d0-0-re aa8a0-0 aa8a0-1" color="203,152,134" id="route_B92629BE-6FAD-443A-94BE-39F04C5E96D0-KM-25-GEGEN-8C4741F6-2412-4953-9404-25810CEAA8A0-KM-684.7733628877847-IN"/>
	<route edges="521e7-1 521e7-2 521e7-3" color="121,254,99" id="route_68AAC61F-BCF5-4C1D-A587-C0CC2A3521E7-KM-1000-IN-68AAC61F-BCF5-4C1D-A587-C0CC2A3521E7-KM-2112.2203445755-IN"/>
	<route edges="521e7-3 521e7-4 355b1-10-re 355b1-9-re" color="127,105,129" id="route_68AAC61F-BCF5-4C1D-A587-C0CC2A3521E7-KM-2112.2203445755-IN-FF4FA342-17AD-49EE-8BB9-FFB9C5E355B1-KM-4000-GEGEN"/>
	<route edges="521e7-3-re 521e7-2-re 521e7-1-re" color="34,242,121" id="route_68AAC61F-BCF5-4C1D-A587-C0CC2A3521E7-KM-1000-GEGEN-68AAC61F-BCF5-4C1D-A587-C0CC2A3521E7-KM-25-GEGEN"/>
	<route edges="521e7-1-re 521e7-0-re cdcf3-0 cdcf3-1" color="187,184,84" id="route_68AAC61F-BCF5-4C1D-A587-C0CC2A3521E7-KM-25-GEGEN-804837FB-B1C6-41D6-81DA-F527202CDCF3-KM-1000-IN"/>
	<route edges="cdcf3-1 cdcf3-2 cdcf3-3" color="187,52,192" id="route_804837FB-B1C6-41D6-81DA-F527202CDCF3-KM-1000-IN-804837FB-B1C6-41D6-81DA-F527202CDCF3-KM-2890.8609817292295-IN"/>
	<route edges="cdcf3-3 cdcf3-4 614ff-0 6e847-0 6e847-1" color="186,158,51" id="route_804837FB-B1C6-41D6-81DA-F527202CDCF3-KM-2890.8609817292295-IN-F499DA8B-EE6F-4824-ADD1-21FFE076E847-KM-1000-IN"/>
	<route edges="cdcf3-3 cdcf3-4 614ff-0 82d5c-0 82d5c-1" color="30,104,30" id="route_804837FB-B1C6-41D6-81DA-F527202CDCF3-KM-2890.8609817292295-IN-04A296EC-B362-4E6D-AD9D-972860C82D5C-KM-124.57232589582645-IN"/>
	<route edges="cdcf3-3-re cdcf3-2-re cdcf3-1-re" color="171,131,244" id="route_804837FB-B1C6-41D6-81DA-F527202CDCF3-KM-1000-GEGEN-804837FB-B1C6-41D6-81DA-F527202CDCF3-KM-25-GEGEN"/>
	<route edges="cdcf3-1-re cdcf3-0-re 0b432-0 0b432-1" color="67,119,80" id="route_804837FB-B1C6-41D6-81DA-F527202CDCF3-KM-25-GEGEN-3F9FDA11-8EE4-4D32-B5CC-8F65CCE0B432-KM-238.29463403906152-IN"/>
	<route edges="cdcf3-1-re cdcf3-0-re 521e7-0 521e7-1" color="203,197,128" id="route_804837FB-B1C6-41D6-81DA-F527202CDCF3-KM-25-GEGEN-68AAC61F-BCF5-4C1D-A587-C0CC2A3521E7-KM-1000-IN"/>
	<route edges="0b432-1 0b432-2 9db29-2-re 9db29-1-re" color="204,166,103" id="route_3F9FDA11-8EE4-4D32-B5CC-8F65CCE0B432-KM-238.29463403906152-IN-DE24B5DB-5B01-4AD8-80F5-1E701D19DB29-KM-25-GEGEN"/>
	<route edges="0b432-1-re 0b432-0-re cdcf3-0 cdcf3-1" color="177,191,157" id="route_3F9FDA11-8EE4-4D32-B5CC-8F65CCE0B432-KM-25-GEGEN-804837FB-B1C6-41D6-81DA-F527202CDCF3-KM-1000-IN"/>
	<route edges="93f86-1 93f86-2 cb171-0 cb171-1" color="216,122,32" id="route_FCD557B6-283D-4EEB-AA29-5343A7693F86-KM-254.45431792963808-IN-14327BE9-2590-4C2D-A7E2-321ABB8CB171-KM-1908.0650690078241-IN"/>
	<route edges="93f86-1-re 93f86-0-re 53446-0 7d2b8-2-re 7d2b8-1-re" color="191,234,251" id="route_FCD557B6-283D-4EEB-AA29-5343A7693F86-KM-25-GEGEN-B4AE51BB-D688-4EBE-A027-DC847C67D2B8-KM-25-GEGEN"/>
	<route edges="93f86-1-re 93f86-0-re 53446-0 6e556-2-re 6e556-1-re" color="92,131,179" id="route_FCD557B6-283D-4EEB-AA29-5343A7693F86-KM-25-GEGEN-7000F262-80C6-4B69-84F4-A63C0496E556-KM-25-GEGEN"/>
	<route edges="f4177-1 f4177-2 f4177-3" color="72,236,208" id="route_2DCABB52-E94C-40E3-A7CB-5660DB3F4177-KM-1000-IN-2DCABB52-E94C-40E3-A7CB-5660DB3F4177-KM-2000-IN"/>
	<route edges="f4177-3 f4177-4 f4177-5" color="53,250,157" id="route_2DCABB52-E94C-40E3-A7CB-5660DB3F4177-KM-2000-IN-2DCABB52-E94C-40E3-A7CB-5660DB3F4177-KM-3000-IN"/>
	<route edges="f4177-5 f4177-6 f4177-7" color="251,66,200" id="route_2DCABB52-E94C-40E3-A7CB-5660DB3F4177-KM-3000-IN-2DCABB52-E94C-40E3-A7CB-5660DB3F4177-KM-4000-IN"/>
	<route edges="f4177-7 f4177-8 f4177-9" color="38,236,102" id="route_2DCABB52-E94C-40E3-A7CB-5660DB3F4177-KM-4000-IN-2DCABB52-E94C-40E3-A7CB-5660DB3F4177-KM-5560.253303703657-IN"/>
	<route edges="f4177-9 f4177-10 3c944-12-re 3c944-11-re" color="223,114,127" id="route_2DCABB52-E94C-40E3-A7CB-5660DB3F4177-KM-5560.253303703657-IN-06F312D5-FA9A-4894-A0C0-8D71D423C944-KM-5000-GEGEN"/>
	<route edges="f4177-9 f4177-10 1a9eb-2-re 1a9eb-1-re" color="141,22,113" id="route_2DCABB52-E94C-40E3-A7CB-5660DB3F4177-KM-5560.253303703657-IN-C5D83A28-35CA-4CBE-A553-4F7D22F1A9EB-KM-25-GEGEN"/>
	<route edges="f4177-9-re f4177-8-re f4177-7-re" color="220,93,67" id="route_2DCABB52-E94C-40E3-A7CB-5660DB3F4177-KM-4000-GEGEN-2DCABB52-E94C-40E3-A7CB-5660DB3F4177-KM-3000-GEGEN"/>
	<route edges="f4177-7-re f4177-6-re f4177-5-re" color="99,247,76" id="route_2DCABB52-E94C-40E3-A7CB-5660DB3F4177-KM-3000-GEGEN-2DCABB52-E94C-40E3-A7CB-5660DB3F4177-KM-2000-GEGEN"/>
	<route edges="f4177-5-re f4177-4-re f4177-3-re" color="136,165,245" id="route_2DCABB52-E94C-40E3-A7CB-5660DB3F4177-KM-2000-GEGEN-2DCABB52-E94C-40E3-A7CB-5660DB3F4177-KM-1000-GEGEN"/>
	<route edges="f4177-3-re f4177-2-re f4177-1-re" color="227,29,247" id="route_2DCABB52-E94C-40E3-A7CB-5660DB3F4177-KM-1000-GEGEN-2DCABB52-E94C-40E3-A7CB-5660DB3F4177-KM-25-GEGEN"/>
	<route edges="f4177-1-re f4177-0-re 53446-0 7d2b8-2-re 7d2b8-1-re" color="200,59,210" id="route_2DCABB52-E94C-40E3-A7CB-5660DB3F4177-KM-25-GEGEN-B4AE51BB-D688-4EBE-A027-DC847C67D2B8-KM-25-GEGEN"/>
	<route edges="f4177-1-re f4177-0-re 53446-0 6e556-2-re 6e556-1-re" color="125,110,41" id="route_2DCABB52-E94C-40E3-A7CB-5660DB3F4177-KM-25-GEGEN-7000F262-80C6-4B69-84F4-A63C0496E556-KM-25-GEGEN"/>
	<route edges="2b4ca-1 2b4ca-2 015c9-0-re 93bd3-2-re 93bd3-1-re" color="21,167,226" id="route_6DBF70D2-A258-4D67-AA4C-F3673842B4CA-KM-463.81731618508263-IN-844B44CF-601C-414A-84C2-8570F0C93BD3-KM-25-GEGEN"/>
	<route edges="2b4ca-1 2b4ca-2 015c9-0-re 4aeb8-2-re 4aeb8-1-re" color="237,1,125" id="route_6DBF70D2-A258-4D67-AA4C-F3673842B4CA-KM-463.81731618508263-IN-61CB046F-B771-48DF-914A-6B419EF4AEB8-KM-25-GEGEN"/>
	<route edges="2b4ca-1-re 2b4ca-0-re cb171-0 cb171-1" color="24,170,126" id="route_6DBF70D2-A258-4D67-AA4C-F3673842B4CA-KM-25-GEGEN-14327BE9-2590-4C2D-A7E2-321ABB8CB171-KM-1908.0650690078241-IN"/>
	<route edges="cb171-1 cb171-2 c8edf-0 c8edf-1" color="108,215,251" id="route_14327BE9-2590-4C2D-A7E2-321ABB8CB171-KM-1908.0650690078241-IN-C41B4CF2-B367-4B82-AEA6-CA02F2AC8EDF-KM-164.87032984724672-IN"/>
	<route edges="cb171-1 cb171-2 0b46e-0 37c05-0 00b60-0-re 37ca7-0 65635-0 65635-1" color="160,202,221" id="route_14327BE9-2590-4C2D-A7E2-321ABB8CB171-KM-1908.0650690078241-IN-190D7606-576E-4BC1-8251-DC2465565635-KM-181.66400492600528-IN"/>
	<route edges="cb171-1 cb171-2 0b46e-0 37c05-0 00b60-0-re 37ca7-0 7f155-0 7f155-1" color="151,169,83" id="route_14327BE9-2590-4C2D-A7E2-321ABB8CB171-KM-1908.0650690078241-IN-41659C8F-C251-411B-9AA9-57806097F155-KM-340.8087986779541-IN"/>
	<route edges="cb171-1 cb171-2 0b46e-0 37c05-0 3dd95-0 3dd95-1" color="57,160,57" id="route_14327BE9-2590-4C2D-A7E2-321ABB8CB171-KM-1908.0650690078241-IN-9B7844AA-68D0-401A-84B7-C7A3B713DD95-KM-631.7357322698663-IN"/>
	<route edges="cb171-1-re cb171-0-re 2b4ca-0 2b4ca-1" color="115,166,214" id="route_14327BE9-2590-4C2D-A7E2-321ABB8CB171-KM-25-GEGEN-6DBF70D2-A258-4D67-AA4C-F3673842B4CA-KM-463.81731618508263-IN"/>
	<route edges="cb171-1-re cb171-0-re 93f86-2-re 93f86-1-re" color="119,209,11" id="route_14327BE9-2590-4C2D-A7E2-321ABB8CB171-KM-25-GEGEN-FCD557B6-283D-4EEB-AA29-5343A7693F86-KM-25-GEGEN"/>
	<route edges="5f880-1 5f880-2 5f880-3" color="234,74,135" id="route_43C5637B-E0E4-4322-A905-94BDF4E5F880-KM-1000-IN-43C5637B-E0E4-4322-A905-94BDF4E5F880-KM-2968.0134948223827-IN"/>
	<route edges="5f880-3 5f880-4 e4815-0 e4815-1" color="56,210,55" id="route_43C5637B-E0E4-4322-A905-94BDF4E5F880-KM-2968.0134948223827-IN-B82F1B99-D222-4937-A4B8-BCC26CAE4815-KM-1453.541904487744-IN"/>
	<route edges="5f880-3-re 5f880-2-re 5f880-1-re" color="168,28,156" id="route_43C5637B-E0E4-4322-A905-94BDF4E5F880-KM-1000-GEGEN-43C5637B-E0E4-4322-A905-94BDF4E5F880-KM-25-GEGEN"/>
	<route edges="5f880-1-re 5f880-0-re c0625-0 7f155-2-re 7f155-1-re" color="145,150,30" id="route_43C5637B-E0E4-4322-A905-94BDF4E5F880-KM-25-GEGEN-41659C8F-C251-411B-9AA9-57806097F155-KM-25-GEGEN"/>
	<route edges="5f880-1-re 5f880-0-re c0625-0 7da61-0 d8cbb-0-re 8b3a4-0 65635-2-re 65635-1-re" color="242,199,202" id="route_43C5637B-E0E4-4322-A905-94BDF4E5F880-KM-25-GEGEN-190D7606-576E-4BC1-8251-DC2465565635-KM-25-GEGEN"/>
	<route edges="5f880-1-re 5f880-0-re c0625-0 7da61-0 d8cbb-0-re 8b3a4-0 3aa92-0 c778e-0 c778e-1" color="134,78,227" id="route_43C5637B-E0E4-4322-A905-94BDF4E5F880-KM-25-GEGEN-2AB423A2-081A-4EF8-B47E-F47769FC778E-KM-893.3775715190525-IN"/>
	<route edges="5f880-1-re 5f880-0-re c0625-0 7da61-0 d8cbb-0-re 8b3a4-0 3aa92-0 dfdea-0 31114-2-re 31114-1-re" color="160,74,234" id="route_43C5637B-E0E4-4322-A905-94BDF4E5F880-KM-25-GEGEN-81AA5B83-1AC4-44AE-B15A-D22FE4E31114-KM-25-GEGEN"/>
	<route edges="5f880-1-re 5f880-0-re c0625-0 7da61-0 d8cbb-0-re 8b3a4-0 3aa92-0 dfdea-0 e7088-0 5b2c1-2-re 5b2c1-1-re" color="199,183,232" id="route_43C5637B-E0E4-4322-A905-94BDF4E5F880-KM-25-GEGEN-C23A6977-2068-4FB0-8334-CB39D525B2C1-KM-25-GEGEN"/>
	<route edges="cdcc6-0 cdcc6-1 cdcc6-2" color="156,43,122" id="route_EDE1C528-F169-40E0-857B-6B4F70CCDCC6-KM-1-IN-EDE1C528-F169-40E0-857B-6B4F70CCDCC6-KM-1001-IN"/>
	<route edges="cdcc6-2 cdcc6-3 cdcc6-4" color="54,114,185" id="route_EDE1C528-F169-40E0-857B-6B4F70CCDCC6-KM-1001-IN-EDE1C528-F169-40E0-857B-6B4F70CCDCC6-KM-2001-IN"/>
	<route edges="cdcc6-4 cdcc6-5 cdcc6-6" color="138,116,180" id="route_EDE1C528-F169-40E0-857B-6B4F70CCDCC6-KM-2001-IN-EDE1C528-F169-40E0-857B-6B4F70CCDCC6-KM-3001-IN"/>
	<route edges="cdcc6-6 cdcc6-7 cdcc6-8" color="245,179,168" id="route_EDE1C528-F169-40E0-857B-6B4F70CCDCC6-KM-3001-IN-EDE1C528-F169-40E0-857B-6B4F70CCDCC6-KM-4001-IN"/>
	<route edges="cdcc6-8 cdcc6-9 cdcc6-10" color="98,130,135" id="route_EDE1C528-F169-40E0-857B-6B4F70CCDCC6-KM-4001-IN-EDE1C528-F169-40E0-857B-6B4F70CCDCC6-KM-5001-IN"/>
	<route edges="cdcc6-10 cdcc6-11 cdcc6-12" color="188,191,33" id="route_EDE1C528-F169-40E0-857B-6B4F70CCDCC6-KM-5001-IN-EDE1C528-F169-40E0-857B-6B4F70CCDCC6-KM-6536.66440127429-IN"/>
	<route edges="cdcc6-12 cdcc6-13 b6eac-0 b6eac-1" color="54,147,252" id="route_EDE1C528-F169-40E0-857B-6B4F70CCDCC6-KM-6536.66440127429-IN-E19278B0-EA56-4E72-9C12-8D77A82B6EAC-KM-1000-IN"/>
	<route edges="cdcc6-12-re cdcc6-11-re cdcc6-10-re" color="233,91,233" id="route_EDE1C528-F169-40E0-857B-6B4F70CCDCC6-KM-5001-GEGEN-EDE1C528-F169-40E0-857B-6B4F70CCDCC6-KM-4001-GEGEN"/>
	<route edges="cdcc6-10-re cdcc6-9-re cdcc6-8-re" color="170,242,53" id="route_EDE1C528-F169-40E0-857B-6B4F70CCDCC6-KM-4001-GEGEN-EDE1C528-F169-40E0-857B-6B4F70CCDCC6-KM-3001-GEGEN"/>
	<route edges="cdcc6-8-re cdcc6-7-re cdcc6-6-re" color="167,161,72" id="route_EDE1C528-F169-40E0-857B-6B4F70CCDCC6-KM-3001-GEGEN-EDE1C528-F169-40E0-857B-6B4F70CCDCC6-KM-2001-GEGEN"/>
	<route edges="cdcc6-6-re cdcc6-5-re cdcc6-4-re" color="54,16,246" id="route_EDE1C528-F169-40E0-857B-6B4F70CCDCC6-KM-2001-GEGEN-EDE1C528-F169-40E0-857B-6B4F70CCDCC6-KM-1001-GEGEN"/>
	<route edges="cdcc6-4-re cdcc6-3-re cdcc6-2-re" color="107,77,32" id="route_EDE1C528-F169-40E0-857B-6B4F70CCDCC6-KM-1001-GEGEN-EDE1C528-F169-40E0-857B-6B4F70CCDCC6-KM-1-GEGEN"/>
	<route edges="354d4-1 354d4-2 4f5c9-2-re 4f5c9-1-re" color="50,204,138" id="route_6D8C284E-79D1-4B19-9B8C-BD65513354D4-KM-96.47358751756049-IN-FA34226D-B517-4DBF-97F7-1CC5BCB4F5C9-KM-25-GEGEN"/>
	<route edges="354d4-1 354d4-2 acb21-0 acb21-1" color="151,31,47" id="route_6D8C284E-79D1-4B19-9B8C-BD65513354D4-KM-96.47358751756049-IN-4054351D-41DB-4F53-BE2B-1FE0D35ACB21-KM-914.6100386400316-IN"/>
	<route edges="354d4-1-re 354d4-0-re 8f70f-0 8f70f-1" color="15,75,70" id="route_6D8C284E-79D1-4B19-9B8C-BD65513354D4-KM-25-GEGEN-FB62442D-B34E-4ED1-944B-421751D8F70F-KM-196.352947606197-IN"/>
	<route edges="8f70f-1 8f70f-2 c66ac-2-re c66ac-1-re" color="182,133,111" id="route_FB62442D-B34E-4ED1-944B-421751D8F70F-KM-196.352947606197-IN-36C27329-7892-4DEB-A036-7F675D4C66AC-KM-25-GEGEN"/>
	<route edges="8f70f-1 8f70f-2 3704f-2-re 3704f-1-re" color="7,117,181" id="route_FB62442D-B34E-4ED1-944B-421751D8F70F-KM-196.352947606197-IN-945695C4-061E-4FDF-9305-34238B03704F-KM-25-GEGEN"/>
	<route edges="8f70f-1-re 8f70f-0-re 354d4-0 354d4-1" color="17,136,99" id="route_FB62442D-B34E-4ED1-944B-421751D8F70F-KM-25-GEGEN-6D8C284E-79D1-4B19-9B8C-BD65513354D4-KM-96.47358751756049-IN"/>
	<route edges="8f70f-1-re 8f70f-0-re ec15f-0 f17e1-0 ae345-0 ae345-1" color="96,26,45" id="route_FB62442D-B34E-4ED1-944B-421751D8F70F-KM-25-GEGEN-057CB62E-2712-4083-A11D-29F7CF0AE345-KM-103.04561740430805-IN"/>
	<route edges="8f70f-1-re 8f70f-0-re ec15f-0 f17e1-0 16863-2-re 16863-1-re" color="178,210,148" id="route_FB62442D-B34E-4ED1-944B-421751D8F70F-KM-25-GEGEN-F68A0C60-D16D-48AF-A40E-03B0E1E16863-KM-25-GEGEN"/>
	<route edges="8f70f-1-re 8f70f-0-re ec15f-0 bd922-0 bd922-1" color="236,201,191" id="route_FB62442D-B34E-4ED1-944B-421751D8F70F-KM-25-GEGEN-630CDBFF-26EC-4C2E-8CE6-CF831A9BD922-KM-1077.9134160895494-IN"/>
	<route edges="bd922-1 bd922-2 d158c-0 54cb0-0 ad640-0 ad640-1" color="208,240,237" id="route_630CDBFF-26EC-4C2E-8CE6-CF831A9BD922-KM-1077.9134160895494-IN-8E7B4D0F-D1BC-4DD2-81A5-330271DAD640-KM-455.0663329602517-IN"/>
	<route edges="bd922-1-re bd922-0-re ec15f-0-re 8f70f-0 8f70f-1" color="30,56,32" id="route_630CDBFF-26EC-4C2E-8CE6-CF831A9BD922-KM-25-GEGEN-FB62442D-B34E-4ED1-944B-421751D8F70F-KM-196.352947606197-IN"/>
	<route edges="16863-1 16863-2 f17e1-0-re ec15f-0-re 8f70f-0 8f70f-1" color="28,88,64" id="route_F68A0C60-D16D-48AF-A40E-03B0E1E16863-KM-1049.2555641663412-IN-FB62442D-B34E-4ED1-944B-421751D8F70F-KM-196.352947606197-IN"/>
	<route edges="16863-1-re 16863-0-re 54cb0-0 ad640-0 ad640-1" color="49,235,122" id="route_F68A0C60-D16D-48AF-A40E-03B0E1E16863-KM-25-GEGEN-8E7B4D0F-D1BC-4DD2-81A5-330271DAD640-KM-455.0663329602517-IN"/>
	<route edges="ad640-1 ad640-2 c2636-0 c2636-1" color="227,60,146" id="route_8E7B4D0F-D1BC-4DD2-81A5-330271DAD640-KM-455.0663329602517-IN-C6110DAD-6064-4D8C-BC02-BF194CEC2636-KM-90.49227411094549-IN"/>
	<route edges="ad640-1 ad640-2 b6792-0 b6792-1" color="134,124,82" id="route_8E7B4D0F-D1BC-4DD2-81A5-330271DAD640-KM-455.0663329602517-IN-599D832B-6D0E-4518-B5FB-E8B6D19B6792-KM-79.28485462572691-IN"/>
	<route edges="ad640-1-re ad640-0-re 54cb0-0-re d158c-0-re 23434-0 0540e-2-re 0540e-1-re" color="206,152,16" id="route_8E7B4D0F-D1BC-4DD2-81A5-330271DAD640-KM-25-GEGEN-8D3EC6CF-2A2A-4250-9D64-B59457C0540E-KM-25-GEGEN"/>
	<route edges="ad640-1-re ad640-0-re 54cb0-0-re d158c-0-re bd922-2-re bd922-1-re" color="212,21,233" id="route_8E7B4D0F-D1BC-4DD2-81A5-330271DAD640-KM-25-GEGEN-630CDBFF-26EC-4C2E-8CE6-CF831A9BD922-KM-25-GEGEN"/>
	<route edges="ad640-1-re ad640-0-re 54cb0-0-re 16863-0 16863-1" color="79,199,192" id="route_8E7B4D0F-D1BC-4DD2-81A5-330271DAD640-KM-25-GEGEN-F68A0C60-D16D-48AF-A40E-03B0E1E16863-KM-1049.2555641663412-IN"/>
	<route edges="ad640-1-re ad640-0-re 8f66d-0 3552e-2-re 3552e-1-re" color="248,104,23" id="route_8E7B4D0F-D1BC-4DD2-81A5-330271DAD640-KM-25-GEGEN-D91FC147-AA02-466B-9537-8E5551B3552E-KM-25-GEGEN"/>
	<route edges="ad640-1-re ad640-0-re 8f66d-0 c0e2c-0 c1af5-2-re c1af5-1-re" color="246,57,225" id="route_8E7B4D0F-D1BC-4DD2-81A5-330271DAD640-KM-25-GEGEN-ACC6AD2D-AAEE-4478-8923-B9F54A4C1AF5-KM-25-GEGEN"/>
	<route edges="ad640-1-re ad640-0-re 8f66d-0 c0e2c-0 0f0ba-0-re 28b7a-0 acb21-2-re acb21-1-re" color="122,140,187" id="route_8E7B4D0F-D1BC-4DD2-81A5-330271DAD640-KM-25-GEGEN-4054351D-41DB-4F53-BE2B-1FE0D35ACB21-KM-25-GEGEN"/>
	<route edges="ad640-1-re ad640-0-re 8f66d-0 c0e2c-0 0f0ba-0-re 28b7a-0 5c3c6-2-re 5c3c6-1-re" color="35,202,15" id="route_8E7B4D0F-D1BC-4DD2-81A5-330271DAD640-KM-25-GEGEN-8AD1D5FF-C43A-4AC4-AEE8-BF55C795C3C6-KM-25-GEGEN"/>
	<route edges="b6792-1 b6792-2 4e3a0-0 4e3a0-1" color="164,121,234" id="route_599D832B-6D0E-4518-B5FB-E8B6D19B6792-KM-79.28485462572691-IN-B7FFDC52-1DD0-460F-BC0A-1CC3C624E3A0-KM-984.5542787261779-IN"/>
	<route edges="b6792-1-re b6792-0-re ad640-2-re ad640-1-re" color="146,93,243" id="route_599D832B-6D0E-4518-B5FB-E8B6D19B6792-KM-25-GEGEN-8E7B4D0F-D1BC-4DD2-81A5-330271DAD640-KM-25-GEGEN"/>
	<route edges="c2636-1 c2636-2 f146f-0 f146f-1" color="168,164,58" id="route_C6110DAD-6064-4D8C-BC02-BF194CEC2636-KM-90.49227411094549-IN-C0F492BF-78A4-4A80-8B81-DE894A0F146F-KM-973.5630285209269-IN"/>
	<route edges="c2636-1-re c2636-0-re ad640-2-re ad640-1-re" color="133,59,23" id="route_C6110DAD-6064-4D8C-BC02-BF194CEC2636-KM-25-GEGEN-8E7B4D0F-D1BC-4DD2-81A5-330271DAD640-KM-25-GEGEN"/>
	<route edges="4e3a0-1 4e3a0-2 8a748-0 8a748-1" color="149,138,19" id="route_B7FFDC52-1DD0-460F-BC0A-1CC3C624E3A0-KM-984.5542787261779-IN-19D3B9C4-E2CE-47FE-B054-1BB70108A748-KM-81.24463641442591-IN"/>
	<route edges="4e3a0-1-re 4e3a0-0-re d0938-0 d0938-1" color="72,27,118" id="route_B7FFDC52-1DD0-460F-BC0A-1CC3C624E3A0-KM-25-GEGEN-5915B269-9351-4491-87CC-A9767FCD0938-KM-101.34410270980774-IN"/>
	<route edges="4e3a0-1-re 4e3a0-0-re b6792-2-re b6792-1-re" color="136,181,106" id="route_B7FFDC52-1DD0-460F-BC0A-1CC3C624E3A0-KM-25-GEGEN-599D832B-6D0E-4518-B5FB-E8B6D19B6792-KM-25-GEGEN"/>
	<route edges="d0938-1 d0938-2 e269d-0 e269d-1" color="48,63,101" id="route_5915B269-9351-4491-87CC-A9767FCD0938-KM-101.34410270980774-IN-FC9B6D53-3D71-4343-8461-141F2D9E269D-KM-173.08552154511705-IN"/>
	<route edges="d0938-1-re d0938-0-re 4e3a0-0 4e3a0-1" color="102,46,33" id="route_5915B269-9351-4491-87CC-A9767FCD0938-KM-25-GEGEN-B7FFDC52-1DD0-460F-BC0A-1CC3C624E3A0-KM-984.5542787261779-IN"/>
	<route edges="88c31-1 88c31-2 88c31-3" color="20,27,87" id="route_F80917AA-4984-4FD7-83EB-A39B66488C31-KM-1000-IN-F80917AA-4984-4FD7-83EB-A39B66488C31-KM-2270.905546097896-IN"/>
	<route edges="88c31-3 88c31-4 f7949-0 f7949-1" color="2,45,98" id="route_F80917AA-4984-4FD7-83EB-A39B66488C31-KM-2270.905546097896-IN-F3FCE0FB-9BE9-493D-9229-563BD47F7949-KM-195.21324611100448-IN"/>
	<route edges="88c31-3-re 88c31-2-re 88c31-1-re" color="169,7,251" id="route_F80917AA-4984-4FD7-83EB-A39B66488C31-KM-1000-GEGEN-F80917AA-4984-4FD7-83EB-A39B66488C31-KM-25-GEGEN"/>
	<route edges="4cd66-1-re 4cd66-0-re 88c31-0 88c31-1" color="223,150,222" id="route_63C0C375-B32B-4D72-AE55-AACCFE94CD66-KM-25-GEGEN-F80917AA-4984-4FD7-83EB-A39B66488C31-KM-1000-IN"/>
	<route edges="9efc9-1-re 9efc9-0-re 88c31-0 88c31-1" color="143,131,182" id="route_2F6ECC9B-B0E9-4F9D-A1A8-5FB5A969EFC9-KM-25-GEGEN-F80917AA-4984-4FD7-83EB-A39B66488C31-KM-1000-IN"/>
	<route edges="cb057-1 cb057-2 5c8f7-0 c8d27-0 c8d27-1" color="229,10,53" id="route_A9ECA3AC-4E1B-4C3A-90F5-A9217DFCB057-KM-1615.0764173282626-IN-4A9DFF85-96F1-4DCE-B23C-D3BA643C8D27-KM-136.72691529462978-IN"/>
	<route edges="cb057-1 cb057-2 5c8f7-0 cff01-0 cff01-1" color="48,146,73" id="route_A9ECA3AC-4E1B-4C3A-90F5-A9217DFCB057-KM-1615.0764173282626-IN-1A7CB00B-4C8A-4ADF-8ACC-F8251C9CFF01-KM-937.1466831358305-IN"/>
	<route edges="cb057-1-re cb057-0-re 382b8-0 ed7b0-2-re ed7b0-1-re" color="38,76,218" id="route_A9ECA3AC-4E1B-4C3A-90F5-A9217DFCB057-KM-25-GEGEN-8187E316-2AAF-40A4-9EB4-1DA2F7BED7B0-KM-25-GEGEN"/>
	<route edges="cb057-1-re cb057-0-re 382b8-0 9b4ca-0-re 77be9-2-re 77be9-1-re" color="42,153,140" id="route_A9ECA3AC-4E1B-4C3A-90F5-A9217DFCB057-KM-25-GEGEN-1CDC2FAD-B645-4FBB-BC61-1EE47BA77BE9-KM-25-GEGEN"/>
	<route edges="3b2ea-1 3b2ea-2 3b2ea-3" color="156,217,64" id="route_66EB7B6A-3909-4293-BF6F-2BE64F73B2EA-KM-1000-IN-66EB7B6A-3909-4293-BF6F-2BE64F73B2EA-KM-2000-IN"/>
	<route edges="3b2ea-3 3b2ea-4 3b2ea-5" color="248,59,31" id="route_66EB7B6A-3909-4293-BF6F-2BE64F73B2EA-KM-2000-IN-66EB7B6A-3909-4293-BF6F-2BE64F73B2EA-KM-3170.0135601901507-IN"/>
	<route edges="3b2ea-5 3b2ea-6 744d7-0 744d7-1" color="248,77,229" id="route_66EB7B6A-3909-4293-BF6F-2BE64F73B2EA-KM-3170.0135601901507-IN-106D2A18-73BD-4E29-9F9C-2CF7234744D7-KM-1145.0075044737318-IN"/>
	<route edges="3b2ea-5 3b2ea-6 d0265-0 d0265-1" color="150,15,208" id="route_66EB7B6A-3909-4293-BF6F-2BE64F73B2EA-KM-3170.0135601901507-IN-776A856F-FEC1-4D00-B9BA-EAF6607D0265-KM-199.43697602843812-IN"/>
	<route edges="3b2ea-5-re 3b2ea-4-re 3b2ea-3-re" color="120,203,170" id="route_66EB7B6A-3909-4293-BF6F-2BE64F73B2EA-KM-2000-GEGEN-66EB7B6A-3909-4293-BF6F-2BE64F73B2EA-KM-1000-GEGEN"/>
	<route edges="3b2ea-3-re 3b2ea-2-re 3b2ea-1-re" color="212,21,244" id="route_66EB7B6A-3909-4293-BF6F-2BE64F73B2EA-KM-1000-GEGEN-66EB7B6A-3909-4293-BF6F-2BE64F73B2EA-KM-25-GEGEN"/>
	<route edges="3b2ea-1-re 3b2ea-0-re 382b8-0 ed7b0-2-re ed7b0-1-re" color="37,234,169" id="route_66EB7B6A-3909-4293-BF6F-2BE64F73B2EA-KM-25-GEGEN-8187E316-2AAF-40A4-9EB4-1DA2F7BED7B0-KM-25-GEGEN"/>
	<route edges="3b2ea-1-re 3b2ea-0-re 382b8-0 9b4ca-0-re 77be9-2-re 77be9-1-re" color="255,160,168" id="route_66EB7B6A-3909-4293-BF6F-2BE64F73B2EA-KM-25-GEGEN-1CDC2FAD-B645-4FBB-BC61-1EE47BA77BE9-KM-25-GEGEN"/>
	<route edges="0cf0c-1 0cf0c-2 f176f-0 f176f-1" color="56,97,166" id="route_B01AF5BD-7242-47C9-914F-3393CEF0CF0C-KM-152.73211692197054-IN-EAB4EBDC-D102-4DEF-88D0-25C99E3F176F-KM-1000-IN"/>
	<route edges="0cf0c-1-re 0cf0c-0-re 5c8f7-0 c8d27-0 c8d27-1" color="247,206,250" id="route_B01AF5BD-7242-47C9-914F-3393CEF0CF0C-KM-25-GEGEN-4A9DFF85-96F1-4DCE-B23C-D3BA643C8D27-KM-136.72691529462978-IN"/>
	<route edges="0cf0c-1-re 0cf0c-0-re 5c8f7-0 cff01-0 cff01-1" color="134,159,83" id="route_B01AF5BD-7242-47C9-914F-3393CEF0CF0C-KM-25-GEGEN-1A7CB00B-4C8A-4ADF-8ACC-F8251C9CFF01-KM-937.1466831358305-IN"/>
	<route edges="cff01-1 cff01-2 0353c-0 7e743-2-re 7e743-1-re" color="234,240,135" id="route_1A7CB00B-4C8A-4ADF-8ACC-F8251C9CFF01-KM-937.1466831358305-IN-B4FF94F1-8074-4838-81DD-ECFF5F87E743-KM-25-GEGEN"/>
	<route edges="cff01-1 cff01-2 0353c-0 fca56-2-re fca56-1-re" color="227,55,235" id="route_1A7CB00B-4C8A-4ADF-8ACC-F8251C9CFF01-KM-937.1466831358305-IN-A57DE870-0465-4BED-BFF5-CF3C94DFCA56-KM-25-GEGEN"/>
	<route edges="cff01-1-re cff01-0-re 5c8f7-0-re cb057-2-re cb057-1-re" color="8,66,240" id="route_1A7CB00B-4C8A-4ADF-8ACC-F8251C9CFF01-KM-25-GEGEN-A9ECA3AC-4E1B-4C3A-90F5-A9217DFCB057-KM-25-GEGEN"/>
	<route edges="cff01-1-re cff01-0-re 5c8f7-0-re 0cf0c-0 0cf0c-1" color="72,161,57" id="route_1A7CB00B-4C8A-4ADF-8ACC-F8251C9CFF01-KM-25-GEGEN-B01AF5BD-7242-47C9-914F-3393CEF0CF0C-KM-152.73211692197054-IN"/>
	<route edges="c8d27-1 c8d27-2 09c30-2-re 09c30-1-re" color="205,182,178" id="route_4A9DFF85-96F1-4DCE-B23C-D3BA643C8D27-KM-136.72691529462978-IN-B7334788-81B3-4533-895A-F1AD8EA09C30-KM-25-GEGEN"/>
	<route edges="c8d27-1-re c8d27-0-re 5c8f7-0-re cb057-2-re cb057-1-re" color="251,155,189" id="route_4A9DFF85-96F1-4DCE-B23C-D3BA643C8D27-KM-25-GEGEN-A9ECA3AC-4E1B-4C3A-90F5-A9217DFCB057-KM-25-GEGEN"/>
	<route edges="c8d27-1-re c8d27-0-re 5c8f7-0-re 0cf0c-0 0cf0c-1" color="159,190,71" id="route_4A9DFF85-96F1-4DCE-B23C-D3BA643C8D27-KM-25-GEGEN-B01AF5BD-7242-47C9-914F-3393CEF0CF0C-KM-152.73211692197054-IN"/>
	<route edges="55031-1 55031-2 d41a3-4-re d41a3-3-re" color="188,9,243" id="route_83208267-335F-4B23-89F2-D3B319955031-KM-848.6990357234663-IN-CC43687D-2F54-4F49-A0AE-2EEE8C9D41A3-KM-1000-GEGEN"/>
	<route edges="55031-1-re 55031-0-re 5af69-0 5af69-1" color="5,46,72" id="route_83208267-335F-4B23-89F2-D3B319955031-KM-25-GEGEN-BE8EA7B0-91C8-449E-890A-47686AA5AF69-KM-1000-IN"/>
	<route edges="5af69-1 5af69-2 5af69-3" color="24,23,235" id="route_BE8EA7B0-91C8-449E-890A-47686AA5AF69-KM-1000-IN-BE8EA7B0-91C8-449E-890A-47686AA5AF69-KM-2000-IN"/>
	<route edges="5af69-3 5af69-4 5af69-5" color="142,207,240" id="route_BE8EA7B0-91C8-449E-890A-47686AA5AF69-KM-2000-IN-BE8EA7B0-91C8-449E-890A-47686AA5AF69-KM-3000-IN"/>
	<route edges="5af69-5 5af69-6 5af69-7" color="34,252,89" id="route_BE8EA7B0-91C8-449E-890A-47686AA5AF69-KM-3000-IN-BE8EA7B0-91C8-449E-890A-47686AA5AF69-KM-4000-IN"/>
	<route edges="5af69-7 5af69-8 5af69-9" color="114,69,203" id="route_BE8EA7B0-91C8-449E-890A-47686AA5AF69-KM-4000-IN-BE8EA7B0-91C8-449E-890A-47686AA5AF69-KM-5000-IN"/>
	<route edges="5af69-9 5af69-10 5af69-11" color="3,31,228" id="route_BE8EA7B0-91C8-449E-890A-47686AA5AF69-KM-5000-IN-BE8EA7B0-91C8-449E-890A-47686AA5AF69-KM-6000-IN"/>
	<route edges="5af69-11 5af69-12 5af69-13" color="139,28,102" id="route_BE8EA7B0-91C8-449E-890A-47686AA5AF69-KM-6000-IN-BE8EA7B0-91C8-449E-890A-47686AA5AF69-KM-7625.423054083232-IN"/>
	<route edges="5af69-13 5af69-14 7e384-0 7e384-1" color="215,82,42" id="route_BE8EA7B0-91C8-449E-890A-47686AA5AF69-KM-7625.423054083232-IN-ED4AF909-15BD-467F-B7E2-94303CA7E384-KM-86.42029216853058-IN"/>
	<route edges="5af69-13-re 5af69-12-re 5af69-11-re" color="249,126,217" id="route_BE8EA7B0-91C8-449E-890A-47686AA5AF69-KM-6000-GEGEN-BE8EA7B0-91C8-449E-890A-47686AA5AF69-KM-5000-GEGEN"/>
	<route edges="5af69-11-re 5af69-10-re 5af69-9-re" color="200,134,108" id="route_BE8EA7B0-91C8-449E-890A-47686AA5AF69-KM-5000-GEGEN-BE8EA7B0-91C8-449E-890A-47686AA5AF69-KM-4000-GEGEN"/>
	<route edges="5af69-9-re 5af69-8-re 5af69-7-re" color="9,185,186" id="route_BE8EA7B0-91C8-449E-890A-47686AA5AF69-KM-4000-GEGEN-BE8EA7B0-91C8-449E-890A-47686AA5AF69-KM-3000-GEGEN"/>
	<route edges="5af69-7-re 5af69-6-re 5af69-5-re" color="136,136,248" id="route_BE8EA7B0-91C8-449E-890A-47686AA5AF69-KM-3000-GEGEN-BE8EA7B0-91C8-449E-890A-47686AA5AF69-KM-2000-GEGEN"/>
	<route edges="5af69-5-re 5af69-4-re 5af69-3-re" color="225,173,143" id="route_BE8EA7B0-91C8-449E-890A-47686AA5AF69-KM-2000-GEGEN-BE8EA7B0-91C8-449E-890A-47686AA5AF69-KM-1000-GEGEN"/>
	<route edges="5af69-3-re 5af69-2-re 5af69-1-re" color="111,192,124" id="route_BE8EA7B0-91C8-449E-890A-47686AA5AF69-KM-1000-GEGEN-BE8EA7B0-91C8-449E-890A-47686AA5AF69-KM-25-GEGEN"/>
	<route edges="5af69-1-re 5af69-0-re e44f6-0 e44f6-1" color="166,75,148" id="route_BE8EA7B0-91C8-449E-890A-47686AA5AF69-KM-25-GEGEN-17C3F239-45DE-4CD7-A654-8290E72E44F6-KM-127.01052255433262-IN"/>
	<route edges="5af69-1-re 5af69-0-re 55031-0 55031-1" color="234,68,194" id="route_BE8EA7B0-91C8-449E-890A-47686AA5AF69-KM-25-GEGEN-83208267-335F-4B23-89F2-D3B319955031-KM-848.6990357234663-IN"/>