<?xml version="1.0" encoding="UTF-8"?>

<!-- generated on 2023-06-19 10:42:37 by Eclipse SUMO netconvert Version v1_17_0+0919-6a4cbcaacb7
<configuration xmlns:xsi="http://www.w3.org/2001/XMLSchema-instance" xsi:noNamespaceSchemaLocation="http://sumo.dlr.de/xsd/netconvertConfiguration.xsd">

    <input>
        <node-files value="sumo-config/demonstration.nod.xml"/>
        <edge-files value="sumo-config/demonstration.edg.xml"/>
        <connection-files value="sumo-config/demonstration.con.xml"/>
    </input>

    <output>
        <output-file value="sumo-config/demonstration.net.xml"/>
    </output>

    <junctions>
        <no-internal-links value="true"/>
        <junctions.minimal-shape value="true"/>
    </junctions>

    <railway>
        <railway.topology.repair value="true"/>
        <railway.topology.repair.connect-straight value="true"/>
        <railway.topology.all-bidi value="false"/>
    </railway>

</configuration>
-->

<net version="1.16" junctionCornerDetail="5" limitTurnSpeed="5.50" xmlns:xsi="http://www.w3.org/2001/XMLSchema-instance" xsi:noNamespaceSchemaLocation="http://sumo.dlr.de/xsd/net_file.xsd">

    <location netOffset="2514252.72,-3456578.38" convBoundary="0.00,0.00,26584.61,22007.03" origBoundary="-2514252.72,3456578.38,-2487668.11,3478585.41" projParameter="!"/>

    <edge id="00630-0" from="ccfd2" to="5e416" priority="-1" spreadType="center" bidi="00630-0-re">
        <lane id="00630-0_0" index="0" allow="rail rail_electric" speed="110.00" length="70.85" shape="13555.64,9399.65 13625.87,9390.33"/>
    </edge>
    <edge id="00630-0-re" from="5e416" to="ccfd2" priority="-1" spreadType="center" bidi="00630-0">
        <lane id="00630-0-re_0" index="0" allow="rail rail_electric" speed="110.00" length="70.85" shape="13625.87,9390.33 13555.64,9399.65"/>
    </edge>
    <edge id="00689-0" from="db752" to="5d72efdd-09c6-4879-884a-dba7e5b00689-km-239.073670491497-in" priority="-1" spreadType="center" shape="12112.12,10430.87 12148.93,10473.31 12171.28,10493.74 12203.47,10513.71 12245.31,10533.93 12301.82,10556.63 12308.60,10559.49" bidi="00689-0-re">
        <lane id="00689-0_0" index="0" allow="rail rail_electric" speed="110.00" length="239.07" shape="12112.12,10430.87 12148.93,10473.31 12171.28,10493.74 12203.47,10513.71 12245.31,10533.93 12301.82,10556.63 12308.60,10559.49"/>
    </edge>
    <edge id="00689-0-re" from="5d72efdd-09c6-4879-884a-dba7e5b00689-km-239.073670491497-in" to="db752" priority="-1" spreadType="center" shape="12308.60,10559.49 12301.82,10556.63 12245.31,10533.93 12203.47,10513.71 12171.28,10493.74 12148.93,10473.31 12112.12,10430.87" bidi="00689-0">
        <lane id="00689-0-re_0" index="0" allow="rail rail_electric" speed="110.00" length="239.07" shape="12308.60,10559.49 12301.82,10556.63 12245.31,10533.93 12203.47,10513.71 12171.28,10493.74 12148.93,10473.31 12112.12,10430.87"/>
    </edge>
    <edge id="00689-1" from="5d72efdd-09c6-4879-884a-dba7e5b00689-km-239.073670491497-in" to="5d72efdd-09c6-4879-884a-dba7e5b00689-km-259.073670491497-gegen" priority="-1" spreadType="center" bidi="00689-1-re">
        <lane id="00689-1_0" index="0" allow="rail rail_electric" speed="110.00" length="20.00" shape="12308.60,10559.49 12327.03,10567.28"/>
    </edge>
    <edge id="00689-1-re" from="5d72efdd-09c6-4879-884a-dba7e5b00689-km-259.073670491497-gegen" to="5d72efdd-09c6-4879-884a-dba7e5b00689-km-239.073670491497-in" priority="-1" spreadType="center" bidi="00689-1">
        <lane id="00689-1-re_0" index="0" allow="rail rail_electric" speed="110.00" length="20.00" shape="12327.03,10567.28 12308.60,10559.49"/>
    </edge>
    <edge id="00689-2" from="5d72efdd-09c6-4879-884a-dba7e5b00689-km-259.073670491497-gegen" to="78091" priority="-1" spreadType="center" bidi="00689-2-re">
        <lane id="00689-2_0" index="0" allow="rail rail_electric" speed="110.00" length="25.00" shape="12327.03,10567.28 12350.05,10577.01"/>
    </edge>
    <edge id="00689-2-re" from="78091" to="5d72efdd-09c6-4879-884a-dba7e5b00689-km-259.073670491497-gegen" priority="-1" spreadType="center" bidi="00689-2">
        <lane id="00689-2-re_0" index="0" allow="rail rail_electric" speed="110.00" length="25.00" shape="12350.05,10577.01 12327.03,10567.28"/>
    </edge>
    <edge id="0074e-0" from="dbc3a" to="b3169b4a-164c-42e2-8f0d-9c986ed0074e-km-25-in" priority="-1" spreadType="center" bidi="0074e-0-re">
        <lane id="0074e-0_0" index="0" allow="rail rail_electric" speed="110.00" length="25.00" shape="22659.25,15201.21 22683.73,15196.17"/>
    </edge>
    <edge id="0074e-0-re" from="b3169b4a-164c-42e2-8f0d-9c986ed0074e-km-25-in" to="dbc3a" priority="-1" spreadType="center" bidi="0074e-0">
        <lane id="0074e-0-re_0" index="0" allow="rail rail_electric" speed="110.00" length="25.00" shape="22683.73,15196.17 22659.25,15201.21"/>
    </edge>
    <edge id="0074e-1" from="b3169b4a-164c-42e2-8f0d-9c986ed0074e-km-25-in" to="b3169b4a-164c-42e2-8f0d-9c986ed0074e-km-45-gegen" priority="-1" spreadType="center" bidi="0074e-1-re">
        <lane id="0074e-1_0" index="0" allow="rail rail_electric" speed="110.00" length="20.00" shape="22683.73,15196.17 22703.32,15192.14"/>
    </edge>
    <edge id="0074e-1-re" from="b3169b4a-164c-42e2-8f0d-9c986ed0074e-km-45-gegen" to="b3169b4a-164c-42e2-8f0d-9c986ed0074e-km-25-in" priority="-1" spreadType="center" bidi="0074e-1">
        <lane id="0074e-1-re_0" index="0" allow="rail rail_electric" speed="110.00" length="20.00" shape="22703.32,15192.14 22683.73,15196.17"/>
    </edge>
    <edge id="0074e-2" from="b3169b4a-164c-42e2-8f0d-9c986ed0074e-km-45-gegen" to="b3169b4a-164c-42e2-8f0d-9c986ed0074e-km-1151.68940391386-in" priority="-1" spreadType="center" shape="22703.32,15192.14 22922.11,15147.13 22993.84,15129.92 23029.99,15118.95 23078.66,15099.30 23116.74,15079.98 23167.57,15048.63 23196.54,15025.11 23225.01,14997.63 23250.26,14966.37 23264.22,14942.45 23276.75,14916.04 23284.05,14887.94 23286.10,14856.51 23283.34,14730.97 23280.47,14601.94 23278.00,14474.25" bidi="0074e-2-re">
        <lane id="0074e-2_0" index="0" allow="rail rail_electric" speed="110.00" length="1106.69" shape="22703.32,15192.14 22922.11,15147.13 22993.84,15129.92 23029.99,15118.95 23078.66,15099.30 23116.74,15079.98 23167.57,15048.63 23196.54,15025.11 23225.01,14997.63 23250.26,14966.37 23264.22,14942.45 23276.75,14916.04 23284.05,14887.94 23286.10,14856.51 23283.34,14730.97 23280.47,14601.94 23278.00,14474.25"/>
    </edge>
    <edge id="0074e-2-re" from="b3169b4a-164c-42e2-8f0d-9c986ed0074e-km-1151.68940391386-in" to="b3169b4a-164c-42e2-8f0d-9c986ed0074e-km-45-gegen" priority="-1" spreadType="center" shape="23278.00,14474.25 23280.47,14601.94 23283.34,14730.97 23286.10,14856.51 23284.05,14887.94 23276.75,14916.04 23264.22,14942.45 23250.26,14966.37 23225.01,14997.63 23196.54,15025.11 23167.57,15048.63 23116.74,15079.98 23078.66,15099.30 23029.99,15118.95 22993.84,15129.92 22922.11,15147.13 22703.32,15192.14" bidi="0074e-2">
        <lane id="0074e-2-re_0" index="0" allow="rail rail_electric" speed="110.00" length="1106.69" shape="23278.00,14474.25 23280.47,14601.94 23283.34,14730.97 23286.10,14856.51 23284.05,14887.94 23276.75,14916.04 23264.22,14942.45 23250.26,14966.37 23225.01,14997.63 23196.54,15025.11 23167.57,15048.63 23116.74,15079.98 23078.66,15099.30 23029.99,15118.95 22993.84,15129.92 22922.11,15147.13 22703.32,15192.14"/>
    </edge>
    <edge id="0074e-3" from="b3169b4a-164c-42e2-8f0d-9c986ed0074e-km-1151.68940391386-in" to="b3169b4a-164c-42e2-8f0d-9c986ed0074e-km-1171.68940391386-gegen" priority="-1" spreadType="center" bidi="0074e-3-re">
        <lane id="0074e-3_0" index="0" allow="rail rail_electric" speed="110.00" length="20.00" shape="23278.00,14474.25 23277.61,14454.26"/>
    </edge>
    <edge id="0074e-3-re" from="b3169b4a-164c-42e2-8f0d-9c986ed0074e-km-1171.68940391386-gegen" to="b3169b4a-164c-42e2-8f0d-9c986ed0074e-km-1151.68940391386-in" priority="-1" spreadType="center" bidi="0074e-3">
        <lane id="0074e-3-re_0" index="0" allow="rail rail_electric" speed="110.00" length="20.00" shape="23277.61,14454.26 23278.00,14474.25"/>
    </edge>
    <edge id="0074e-4" from="b3169b4a-164c-42e2-8f0d-9c986ed0074e-km-1171.68940391386-gegen" to="d60c4" priority="-1" spreadType="center" bidi="0074e-4-re">
        <lane id="0074e-4_0" index="0" allow="rail rail_electric" speed="110.00" length="25.00" shape="23277.61,14454.26 23277.13,14429.26"/>
    </edge>
    <edge id="0074e-4-re" from="d60c4" to="b3169b4a-164c-42e2-8f0d-9c986ed0074e-km-1171.68940391386-gegen" priority="-1" spreadType="center" bidi="0074e-4">
        <lane id="0074e-4-re_0" index="0" allow="rail rail_electric" speed="110.00" length="25.00" shape="23277.13,14429.26 23277.61,14454.26"/>
    </edge>
    <edge id="009c4-0" from="83b6b" to="7c7e8" priority="-1" spreadType="center" bidi="009c4-0-re">
        <lane id="009c4-0_0" index="0" allow="rail rail_electric" speed="110.00" length="69.98" shape="17208.48,9230.52 17223.14,9162.25"/>
    </edge>
    <edge id="009c4-0-re" from="7c7e8" to="83b6b" priority="-1" spreadType="center" bidi="009c4-0">
        <lane id="009c4-0-re_0" index="0" allow="rail rail_electric" speed="110.00" length="69.98" shape="17223.14,9162.25 17208.48,9230.52"/>
    </edge>
    <edge id="00bf4-0" from="da022" to="f2c9f856-263f-4c7a-b7c6-e7376e500bf4-km-25-in" priority="-1" spreadType="center" bidi="00bf4-0-re">
        <lane id="00bf4-0_0" index="0" allow="rail rail_electric" speed="110.00" length="25.00" shape="1271.61,17642.66 1296.11,17647.59"/>
    </edge>
    <edge id="00bf4-0-re" from="f2c9f856-263f-4c7a-b7c6-e7376e500bf4-km-25-in" to="da022" priority="-1" spreadType="center" bidi="00bf4-0">
        <lane id="00bf4-0-re_0" index="0" allow="rail rail_electric" speed="110.00" length="25.00" shape="1296.11,17647.59 1271.61,17642.66"/>
    </edge>
    <edge id="00bf4-1" from="f2c9f856-263f-4c7a-b7c6-e7376e500bf4-km-25-in" to="f2c9f856-263f-4c7a-b7c6-e7376e500bf4-km-45-gegen" priority="-1" spreadType="center" bidi="00bf4-1-re">
        <lane id="00bf4-1_0" index="0" allow="rail rail_electric" speed="110.00" length="20.00" shape="1296.11,17647.59 1315.72,17651.54"/>
    </edge>
    <edge id="00bf4-1-re" from="f2c9f856-263f-4c7a-b7c6-e7376e500bf4-km-45-gegen" to="f2c9f856-263f-4c7a-b7c6-e7376e500bf4-km-25-in" priority="-1" spreadType="center" bidi="00bf4-1">
        <lane id="00bf4-1-re_0" index="0" allow="rail rail_electric" speed="110.00" length="20.00" shape="1315.72,17651.54 1296.11,17647.59"/>
    </edge>
    <edge id="00bf4-2" from="f2c9f856-263f-4c7a-b7c6-e7376e500bf4-km-45-gegen" to="f2c9f856-263f-4c7a-b7c6-e7376e500bf4-km-1047.2151220961132-in" priority="-1" spreadType="center" shape="1315.72,17651.54 1380.02,17664.49 1420.90,17671.11 1459.36,17677.18 1513.40,17687.77 2293.28,17852.83 2297.21,17853.83" bidi="00bf4-2-re">
        <lane id="00bf4-2_0" index="0" allow="rail rail_electric" speed="110.00" length="1002.22" shape="1315.72,17651.54 1380.02,17664.49 1420.90,17671.11 1459.36,17677.18 1513.40,17687.77 2293.28,17852.83 2297.21,17853.83"/>
    </edge>
    <edge id="00bf4-2-re" from="f2c9f856-263f-4c7a-b7c6-e7376e500bf4-km-1047.2151220961132-in" to="f2c9f856-263f-4c7a-b7c6-e7376e500bf4-km-45-gegen" priority="-1" spreadType="center" shape="2297.21,17853.83 2293.28,17852.83 1513.40,17687.77 1459.36,17677.18 1420.90,17671.11 1380.02,17664.49 1315.72,17651.54" bidi="00bf4-2">
        <lane id="00bf4-2-re_0" index="0" allow="rail rail_electric" speed="110.00" length="1002.22" shape="2297.21,17853.83 2293.28,17852.83 1513.40,17687.77 1459.36,17677.18 1420.90,17671.11 1380.02,17664.49 1315.72,17651.54"/>
    </edge>
    <edge id="00bf4-3" from="f2c9f856-263f-4c7a-b7c6-e7376e500bf4-km-1047.2151220961132-in" to="f2c9f856-263f-4c7a-b7c6-e7376e500bf4-km-1067.2151220961132-gegen" priority="-1" spreadType="center" bidi="00bf4-3-re">
        <lane id="00bf4-3_0" index="0" allow="rail rail_electric" speed="110.00" length="20.00" shape="2297.21,17853.83 2316.59,17858.77"/>
    </edge>
    <edge id="00bf4-3-re" from="f2c9f856-263f-4c7a-b7c6-e7376e500bf4-km-1067.2151220961132-gegen" to="f2c9f856-263f-4c7a-b7c6-e7376e500bf4-km-1047.2151220961132-in" priority="-1" spreadType="center" bidi="00bf4-3">
        <lane id="00bf4-3-re_0" index="0" allow="rail rail_electric" speed="110.00" length="20.00" shape="2316.59,17858.77 2297.21,17853.83"/>
    </edge>
    <edge id="00bf4-4" from="f2c9f856-263f-4c7a-b7c6-e7376e500bf4-km-1067.2151220961132-gegen" to="b2e71" priority="-1" spreadType="center" bidi="00bf4-4-re">
        <lane id="00bf4-4_0" index="0" allow="rail rail_electric" speed="110.00" length="25.00" shape="2316.59,17858.77 2340.82,17864.93"/>
    </edge>
    <edge id="00bf4-4-re" from="b2e71" to="f2c9f856-263f-4c7a-b7c6-e7376e500bf4-km-1067.2151220961132-gegen" priority="-1" spreadType="center" bidi="00bf4-4">
        <lane id="00bf4-4-re_0" index="0" allow="rail rail_electric" speed="110.00" length="25.00" shape="2340.82,17864.93 2316.59,17858.77"/>
    </edge>
    <edge id="00e90-0" from="11fd0" to="97b7a8d5-8dbd-482b-9af6-58140d800e90-km-25-in" priority="-1" spreadType="center" bidi="00e90-0-re">
        <lane id="00e90-0_0" index="0" allow="rail rail_electric" speed="110.00" length="25.00" shape="14527.20,10089.27 14502.46,10092.87"/>
    </edge>
    <edge id="00e90-0-re" from="97b7a8d5-8dbd-482b-9af6-58140d800e90-km-25-in" to="11fd0" priority="-1" spreadType="center" bidi="00e90-0">
        <lane id="00e90-0-re_0" index="0" allow="rail rail_electric" speed="110.00" length="25.00" shape="14502.46,10092.87 14527.20,10089.27"/>
    </edge>
    <edge id="00e90-1" from="97b7a8d5-8dbd-482b-9af6-58140d800e90-km-25-in" to="97b7a8d5-8dbd-482b-9af6-58140d800e90-km-45-gegen" priority="-1" spreadType="center" bidi="00e90-1-re">
        <lane id="00e90-1_0" index="0" allow="rail rail_electric" speed="110.00" length="20.00" shape="14502.46,10092.87 14482.67,10095.75"/>
    </edge>
    <edge id="00e90-1-re" from="97b7a8d5-8dbd-482b-9af6-58140d800e90-km-45-gegen" to="97b7a8d5-8dbd-482b-9af6-58140d800e90-km-25-in" priority="-1" spreadType="center" bidi="00e90-1">
        <lane id="00e90-1-re_0" index="0" allow="rail rail_electric" speed="110.00" length="20.00" shape="14482.67,10095.75 14502.46,10092.87"/>
    </edge>
    <edge id="00e90-2" from="97b7a8d5-8dbd-482b-9af6-58140d800e90-km-45-gegen" to="97b7a8d5-8dbd-482b-9af6-58140d800e90-km-589.4361665723377-in" priority="-1" spreadType="center" shape="14482.67,10095.75 14440.62,10101.88 14394.94,10108.39 14043.54,10178.48 14004.50,10187.67 13958.94,10200.52 13949.20,10202.94" bidi="00e90-2-re">
        <lane id="00e90-2_0" index="0" allow="rail rail_electric" speed="110.00" length="544.44" shape="14482.67,10095.75 14440.62,10101.88 14394.94,10108.39 14043.54,10178.48 14004.50,10187.67 13958.94,10200.52 13949.20,10202.94"/>
    </edge>
    <edge id="00e90-2-re" from="97b7a8d5-8dbd-482b-9af6-58140d800e90-km-589.4361665723377-in" to="97b7a8d5-8dbd-482b-9af6-58140d800e90-km-45-gegen" priority="-1" spreadType="center" shape="13949.20,10202.94 13958.94,10200.52 14004.50,10187.67 14043.54,10178.48 14394.94,10108.39 14440.62,10101.88 14482.67,10095.75" bidi="00e90-2">
        <lane id="00e90-2-re_0" index="0" allow="rail rail_electric" speed="110.00" length="544.44" shape="13949.20,10202.94 13958.94,10200.52 14004.50,10187.67 14043.54,10178.48 14394.94,10108.39 14440.62,10101.88 14482.67,10095.75"/>
    </edge>
    <edge id="00e90-3" from="97b7a8d5-8dbd-482b-9af6-58140d800e90-km-589.4361665723377-in" to="97b7a8d5-8dbd-482b-9af6-58140d800e90-km-609.4361665723377-gegen" priority="-1" spreadType="center" bidi="00e90-3-re">
        <lane id="00e90-3_0" index="0" allow="rail rail_electric" speed="110.00" length="20.00" shape="13949.20,10202.94 13929.79,10207.77"/>
    </edge>
    <edge id="00e90-3-re" from="97b7a8d5-8dbd-482b-9af6-58140d800e90-km-609.4361665723377-gegen" to="97b7a8d5-8dbd-482b-9af6-58140d800e90-km-589.4361665723377-in" priority="-1" spreadType="center" bidi="00e90-3">
        <lane id="00e90-3-re_0" index="0" allow="rail rail_electric" speed="110.00" length="20.00" shape="13929.79,10207.77 13949.20,10202.94"/>
    </edge>
    <edge id="00e90-4" from="97b7a8d5-8dbd-482b-9af6-58140d800e90-km-609.4361665723377-gegen" to="48fc7" priority="-1" spreadType="center" bidi="00e90-4-re">
        <lane id="00e90-4_0" index="0" allow="rail rail_electric" speed="110.00" length="25.00" shape="13929.79,10207.77 13905.68,10213.76"/>
    </edge>
    <edge id="00e90-4-re" from="48fc7" to="97b7a8d5-8dbd-482b-9af6-58140d800e90-km-609.4361665723377-gegen" priority="-1" spreadType="center" bidi="00e90-4">
        <lane id="00e90-4-re_0" index="0" allow="rail rail_electric" speed="110.00" length="25.00" shape="13905.68,10213.76 13929.79,10207.77"/>
    </edge>
    <edge id="018ee-0" from="ff269" to="70bfd" priority="-1" spreadType="center" bidi="018ee-0-re">
        <lane id="018ee-0_0" index="0" allow="rail rail_electric" speed="110.00" length="65.95" shape="15129.75,10707.13 15194.42,10720.06"/>
    </edge>
    <edge id="018ee-0-re" from="70bfd" to="ff269" priority="-1" spreadType="center" bidi="018ee-0">
        <lane id="018ee-0-re_0" index="0" allow="rail rail_electric" speed="110.00" length="65.95" shape="15194.42,10720.06 15129.75,10707.13"/>
    </edge>
    <edge id="0195b-0" from="23ac3" to="bc58962c-3767-4865-b491-227b2760195b-km-25-in" priority="-1" spreadType="center" bidi="0195b-0-re">
        <lane id="0195b-0_0" index="0" allow="rail rail_electric" speed="110.00" length="25.00" shape="11988.60,9917.79 11999.32,9940.16"/>
    </edge>
    <edge id="0195b-0-re" from="bc58962c-3767-4865-b491-227b2760195b-km-25-in" to="23ac3" priority="-1" spreadType="center" bidi="0195b-0">
        <lane id="0195b-0-re_0" index="0" allow="rail rail_electric" speed="110.00" length="25.00" shape="11999.32,9940.16 11988.60,9917.79"/>
    </edge>
    <edge id="0195b-1" from="bc58962c-3767-4865-b491-227b2760195b-km-25-in" to="bc58962c-3767-4865-b491-227b2760195b-km-45-gegen" priority="-1" spreadType="center" bidi="0195b-1-re">
        <lane id="0195b-1_0" index="0" allow="rail rail_electric" speed="110.00" length="20.00" shape="11999.32,9940.16 12007.96,9958.19"/>
    </edge>
    <edge id="0195b-1-re" from="bc58962c-3767-4865-b491-227b2760195b-km-45-gegen" to="bc58962c-3767-4865-b491-227b2760195b-km-25-in" priority="-1" spreadType="center" bidi="0195b-1">
        <lane id="0195b-1-re_0" index="0" allow="rail rail_electric" speed="110.00" length="20.00" shape="12007.96,9958.19 11999.32,9940.16"/>
    </edge>
    <edge id="0195b-2" from="bc58962c-3767-4865-b491-227b2760195b-km-45-gegen" to="bc58962c-3767-4865-b491-227b2760195b-km-269.0184530173342-in" priority="-1" spreadType="center" shape="12007.96,9958.19 12034.38,10013.31 12040.48,10036.72 12065.53,10173.14" bidi="0195b-2-re">
        <lane id="0195b-2_0" index="0" allow="rail rail_electric" speed="110.00" length="224.02" shape="12007.96,9958.19 12034.38,10013.31 12040.48,10036.72 12065.53,10173.14"/>
    </edge>
    <edge id="0195b-2-re" from="bc58962c-3767-4865-b491-227b2760195b-km-269.0184530173342-in" to="bc58962c-3767-4865-b491-227b2760195b-km-45-gegen" priority="-1" spreadType="center" shape="12065.53,10173.14 12040.48,10036.72 12034.38,10013.31 12007.96,9958.19" bidi="0195b-2">
        <lane id="0195b-2-re_0" index="0" allow="rail rail_electric" speed="110.00" length="224.02" shape="12065.53,10173.14 12040.48,10036.72 12034.38,10013.31 12007.96,9958.19"/>
    </edge>
    <edge id="0195b-3" from="bc58962c-3767-4865-b491-227b2760195b-km-269.0184530173342-in" to="bc58962c-3767-4865-b491-227b2760195b-km-289.0184530173342-gegen" priority="-1" spreadType="center" bidi="0195b-3-re">
        <lane id="0195b-3_0" index="0" allow="rail rail_electric" speed="110.00" length="20.00" shape="12065.53,10173.14 12069.14,10192.81"/>
    </edge>
    <edge id="0195b-3-re" from="bc58962c-3767-4865-b491-227b2760195b-km-289.0184530173342-gegen" to="bc58962c-3767-4865-b491-227b2760195b-km-269.0184530173342-in" priority="-1" spreadType="center" bidi="0195b-3">
        <lane id="0195b-3-re_0" index="0" allow="rail rail_electric" speed="110.00" length="20.00" shape="12069.14,10192.81 12065.53,10173.14"/>
    </edge>
    <edge id="0195b-4" from="bc58962c-3767-4865-b491-227b2760195b-km-289.0184530173342-gegen" to="3fee2" priority="-1" spreadType="center" bidi="0195b-4-re">
        <lane id="0195b-4_0" index="0" allow="rail rail_electric" speed="110.00" length="25.00" shape="12069.14,10192.81 12073.66,10217.40"/>
    </edge>
    <edge id="0195b-4-re" from="3fee2" to="bc58962c-3767-4865-b491-227b2760195b-km-289.0184530173342-gegen" priority="-1" spreadType="center" bidi="0195b-4">
        <lane id="0195b-4-re_0" index="0" allow="rail rail_electric" speed="110.00" length="25.00" shape="12073.66,10217.40 12069.14,10192.81"/>
    </edge>
    <edge id="01960-0" from="cae90" to="f5f66c3c-f765-4ca8-bd5f-d68f3d001960-km-515.6095876919103-in" priority="-1" spreadType="center" bidi="01960-0-re">
        <lane id="01960-0_0" index="0" allow="rail rail_electric" speed="110.00" length="515.61" shape="3.66,14126.64 517.87,14164.64"/>
    </edge>
    <edge id="01960-0-re" from="f5f66c3c-f765-4ca8-bd5f-d68f3d001960-km-515.6095876919103-in" to="cae90" priority="-1" spreadType="center" bidi="01960-0">
        <lane id="01960-0-re_0" index="0" allow="rail rail_electric" speed="110.00" length="515.61" shape="517.87,14164.64 3.66,14126.64"/>
    </edge>
    <edge id="01960-1" from="f5f66c3c-f765-4ca8-bd5f-d68f3d001960-km-515.6095876919103-in" to="f5f66c3c-f765-4ca8-bd5f-d68f3d001960-km-535.6095876919103-gegen" priority="-1" spreadType="center" bidi="01960-1-re">
        <lane id="01960-1_0" index="0" allow="rail rail_electric" speed="110.00" length="20.00" shape="517.87,14164.64 537.82,14166.11"/>
    </edge>
    <edge id="01960-1-re" from="f5f66c3c-f765-4ca8-bd5f-d68f3d001960-km-535.6095876919103-gegen" to="f5f66c3c-f765-4ca8-bd5f-d68f3d001960-km-515.6095876919103-in" priority="-1" spreadType="center" bidi="01960-1">
        <lane id="01960-1-re_0" index="0" allow="rail rail_electric" speed="110.00" length="20.00" shape="537.82,14166.11 517.87,14164.64"/>
    </edge>
    <edge id="01960-2" from="f5f66c3c-f765-4ca8-bd5f-d68f3d001960-km-535.6095876919103-gegen" to="267a3" priority="-1" spreadType="center" bidi="01960-2-re">
        <lane id="01960-2_0" index="0" allow="rail rail_electric" speed="110.00" length="25.00" shape="537.82,14166.11 562.75,14167.95"/>
    </edge>
    <edge id="01960-2-re" from="267a3" to="f5f66c3c-f765-4ca8-bd5f-d68f3d001960-km-535.6095876919103-gegen" priority="-1" spreadType="center" bidi="01960-2">
        <lane id="01960-2-re_0" index="0" allow="rail rail_electric" speed="110.00" length="25.00" shape="562.75,14167.95 537.82,14166.11"/>
    </edge>
    <edge id="02dc7-0" from="3dfda" to="05a194ad-9fe3-4fbd-bbe2-4ed0c6202dc7-km-615.605468926308-in" priority="-1" spreadType="center" shape="14532.45,8786.54 15018.77,8688.82 15070.03,8674.32 15097.15,8665.31 15131.25,8653.04 15132.61,8652.45" bidi="02dc7-0-re">
        <lane id="02dc7-0_0" index="0" allow="rail rail_electric" speed="110.00" length="615.61" shape="14532.45,8786.54 15018.77,8688.82 15070.03,8674.32 15097.15,8665.31 15131.25,8653.04 15132.61,8652.45"/>
    </edge>
    <edge id="02dc7-0-re" from="05a194ad-9fe3-4fbd-bbe2-4ed0c6202dc7-km-615.605468926308-in" to="3dfda" priority="-1" spreadType="center" shape="15132.61,8652.45 15131.25,8653.04 15097.15,8665.31 15070.03,8674.32 15018.77,8688.82 14532.45,8786.54" bidi="02dc7-0">
        <lane id="02dc7-0-re_0" index="0" allow="rail rail_electric" speed="110.00" length="615.61" shape="15132.61,8652.45 15131.25,8653.04 15097.15,8665.31 15070.03,8674.32 15018.77,8688.82 14532.45,8786.54"/>
    </edge>
    <edge id="02dc7-1" from="05a194ad-9fe3-4fbd-bbe2-4ed0c6202dc7-km-615.605468926308-in" to="05a194ad-9fe3-4fbd-bbe2-4ed0c6202dc7-km-635.605468926308-gegen" priority="-1" spreadType="center" bidi="02dc7-1-re">
        <lane id="02dc7-1_0" index="0" allow="rail rail_electric" speed="110.00" length="20.00" shape="15132.61,8652.45 15150.98,8644.57"/>
    </edge>
    <edge id="02dc7-1-re" from="05a194ad-9fe3-4fbd-bbe2-4ed0c6202dc7-km-635.605468926308-gegen" to="05a194ad-9fe3-4fbd-bbe2-4ed0c6202dc7-km-615.605468926308-in" priority="-1" spreadType="center" bidi="02dc7-1">
        <lane id="02dc7-1-re_0" index="0" allow="rail rail_electric" speed="110.00" length="20.00" shape="15150.98,8644.57 15132.61,8652.45"/>
    </edge>
    <edge id="02dc7-2" from="05a194ad-9fe3-4fbd-bbe2-4ed0c6202dc7-km-635.605468926308-gegen" to="671a9" priority="-1" spreadType="center" bidi="02dc7-2-re">
        <lane id="02dc7-2_0" index="0" allow="rail rail_electric" speed="110.00" length="25.00" shape="15150.98,8644.57 15173.96,8634.71"/>
    </edge>
    <edge id="02dc7-2-re" from="671a9" to="05a194ad-9fe3-4fbd-bbe2-4ed0c6202dc7-km-635.605468926308-gegen" priority="-1" spreadType="center" bidi="02dc7-2">
        <lane id="02dc7-2-re_0" index="0" allow="rail rail_electric" speed="110.00" length="25.00" shape="15173.96,8634.71 15150.98,8644.57"/>
    </edge>
    <edge id="04822-0" from="e00c0" to="4730ce6d-50db-4fbd-9dce-7856d1104822-km-744.6992355700338-in" priority="-1" spreadType="center" shape="13413.94,21169.06 13352.02,21135.72 13271.52,21089.00 13235.03,21068.53 13198.50,21051.08 13162.90,21035.62 13123.20,21020.87 13084.33,21007.59 13021.00,20991.16 12957.37,20977.48 12898.64,20967.94 12713.98,20940.26" bidi="04822-0-re">
        <lane id="04822-0_0" index="0" allow="rail rail_electric" speed="110.00" length="744.70" shape="13413.94,21169.06 13352.02,21135.72 13271.52,21089.00 13235.03,21068.53 13198.50,21051.08 13162.90,21035.62 13123.20,21020.87 13084.33,21007.59 13021.00,20991.16 12957.37,20977.48 12898.64,20967.94 12713.98,20940.26"/>
    </edge>
    <edge id="04822-0-re" from="4730ce6d-50db-4fbd-9dce-7856d1104822-km-744.6992355700338-in" to="e00c0" priority="-1" spreadType="center" shape="12713.98,20940.26 12898.64,20967.94 12957.37,20977.48 13021.00,20991.16 13084.33,21007.59 13123.20,21020.87 13162.90,21035.62 13198.50,21051.08 13235.03,21068.53 13271.52,21089.00 13352.02,21135.72 13413.94,21169.06" bidi="04822-0">
        <lane id="04822-0-re_0" index="0" allow="rail rail_electric" speed="110.00" length="744.70" shape="12713.98,20940.26 12898.64,20967.94 12957.37,20977.48 13021.00,20991.16 13084.33,21007.59 13123.20,21020.87 13162.90,21035.62 13198.50,21051.08 13235.03,21068.53 13271.52,21089.00 13352.02,21135.72 13413.94,21169.06"/>
    </edge>
    <edge id="04822-1" from="4730ce6d-50db-4fbd-9dce-7856d1104822-km-744.6992355700338-in" to="4730ce6d-50db-4fbd-9dce-7856d1104822-km-764.6992355700338-gegen" priority="-1" spreadType="center" bidi="04822-1-re">
        <lane id="04822-1_0" index="0" allow="rail rail_electric" speed="110.00" length="20.00" shape="12713.98,20940.26 12694.20,20937.30"/>
    </edge>
    <edge id="04822-1-re" from="4730ce6d-50db-4fbd-9dce-7856d1104822-km-764.6992355700338-gegen" to="4730ce6d-50db-4fbd-9dce-7856d1104822-km-744.6992355700338-in" priority="-1" spreadType="center" bidi="04822-1">
        <lane id="04822-1-re_0" index="0" allow="rail rail_electric" speed="110.00" length="20.00" shape="12694.20,20937.30 12713.98,20940.26"/>
    </edge>
    <edge id="04822-2" from="4730ce6d-50db-4fbd-9dce-7856d1104822-km-764.6992355700338-gegen" to="7bf15" priority="-1" spreadType="center" bidi="04822-2-re">
        <lane id="04822-2_0" index="0" allow="rail rail_electric" speed="110.00" length="25.00" shape="12694.20,20937.30 12669.48,20933.59"/>
    </edge>
    <edge id="04822-2-re" from="7bf15" to="4730ce6d-50db-4fbd-9dce-7856d1104822-km-764.6992355700338-gegen" priority="-1" spreadType="center" bidi="04822-2">
        <lane id="04822-2-re_0" index="0" allow="rail rail_electric" speed="110.00" length="25.00" shape="12669.48,20933.59 12694.20,20937.30"/>
    </edge>
    <edge id="04fd0-0" from="65f8f" to="1d46fb5a-04c9-4702-8f6a-56afd9404fd0-km-25-in" priority="-1" spreadType="center" bidi="04fd0-0-re">
        <lane id="04fd0-0_0" index="0" allow="rail rail_electric" speed="110.00" length="25.00" shape="12093.52,10151.91 12089.76,10127.31"/>
    </edge>
    <edge id="04fd0-0-re" from="1d46fb5a-04c9-4702-8f6a-56afd9404fd0-km-25-in" to="65f8f" priority="-1" spreadType="center" bidi="04fd0-0">
        <lane id="04fd0-0-re_0" index="0" allow="rail rail_electric" speed="110.00" length="25.00" shape="12089.76,10127.31 12093.52,10151.91"/>
    </edge>
    <edge id="04fd0-1" from="1d46fb5a-04c9-4702-8f6a-56afd9404fd0-km-25-in" to="1d46fb5a-04c9-4702-8f6a-56afd9404fd0-km-45-gegen" priority="-1" spreadType="center" bidi="04fd0-1-re">
        <lane id="04fd0-1_0" index="0" allow="rail rail_electric" speed="110.00" length="20.00" shape="12089.76,10127.31 12086.73,10107.54"/>
    </edge>
    <edge id="04fd0-1-re" from="1d46fb5a-04c9-4702-8f6a-56afd9404fd0-km-45-gegen" to="1d46fb5a-04c9-4702-8f6a-56afd9404fd0-km-25-in" priority="-1" spreadType="center" bidi="04fd0-1">
        <lane id="04fd0-1-re_0" index="0" allow="rail rail_electric" speed="110.00" length="20.00" shape="12086.73,10107.54 12089.76,10127.31"/>
    </edge>
    <edge id="04fd0-2" from="1d46fb5a-04c9-4702-8f6a-56afd9404fd0-km-45-gegen" to="1e6e0" priority="-1" spreadType="center" shape="12086.73,10107.54 12078.75,10055.33 12077.71,10039.48" bidi="04fd0-2-re">
        <lane id="04fd0-2_0" index="0" allow="rail rail_electric" speed="110.00" length="68.70" shape="12086.73,10107.54 12078.75,10055.33 12077.71,10039.48"/>
    </edge>
    <edge id="04fd0-2-re" from="1e6e0" to="1d46fb5a-04c9-4702-8f6a-56afd9404fd0-km-45-gegen" priority="-1" spreadType="center" shape="12077.71,10039.48 12078.75,10055.33 12086.73,10107.54" bidi="04fd0-2">
        <lane id="04fd0-2-re_0" index="0" allow="rail rail_electric" speed="110.00" length="68.70" shape="12077.71,10039.48 12078.75,10055.33 12086.73,10107.54"/>
    </edge>