<connections>
<!-- Point 30dc2 a37deb3b-5004-4b72-8730-2279f8f30dc2 -->
<connection from="7b7cc-0" to="09c30-0"/>
<connection from="7b7cc-0" to="09c30-0-re"/>
<connection from="7b7cc-0-re" to="09c30-0"/>
<connection from="7b7cc-0-re" to="09c30-0-re"/>
<connection from="8541e-0" to="09c30-0"/>
<connection from="8541e-0" to="09c30-0-re"/>
<connection from="8541e-0-re" to="09c30-0"/>
<connection from="8541e-0-re" to="09c30-0-re"/>
<connection from="09c30-0" to="7b7cc-0"/>
<connection from="09c30-0" to="8541e-0"/>
<connection from="09c30-0" to="7b7cc-0-re"/>
<connection from="09c30-0" to="8541e-0-re"/>
<connection from="09c30-0-re" to="7b7cc-0"/>
<connection from="09c30-0-re" to="8541e-0"/>
<connection from="09c30-0-re" to="7b7cc-0-re"/>
<connection from="09c30-0-re" to="8541e-0-re"/>
<!-- Point 5cfa9 3eab5a24-4b71-42ee-ae25-d34a80b5cfa9 -->
<connection from="7943a-0" to="8541e-2"/>
<connection from="7943a-0" to="8541e-2-re"/>
<connection from="7943a-0-re" to="8541e-2"/>
<connection from="7943a-0-re" to="8541e-2-re"/>
<connection from="a4d8d-0" to="8541e-2"/>
<connection from="a4d8d-0" to="8541e-2-re"/>
<connection from="a4d8d-0-re" to="8541e-2"/>
<connection from="a4d8d-0-re" to="8541e-2-re"/>
<connection from="8541e-2" to="7943a-0"/>
<connection from="8541e-2" to="a4d8d-0"/>
<connection from="8541e-2" to="7943a-0-re"/>
<connection from="8541e-2" to="a4d8d-0-re"/>
<connection from="8541e-2-re" to="7943a-0"/>
<connection from="8541e-2-re" to="a4d8d-0"/>
<connection from="8541e-2-re" to="7943a-0-re"/>
<connection from="8541e-2-re" to="a4d8d-0-re"/>
<!-- Point ccfa6 6fe25c49-79b3-496d-bf4e-1a260e6ccfa6 -->
<connection from="cc84d-0" to="5fd96-0"/>
<connection from="cc84d-0" to="5fd96-0-re"/>
<connection from="cc84d-0-re" to="5fd96-0"/>
<connection from="cc84d-0-re" to="5fd96-0-re"/>
<connection from="7943a-2" to="5fd96-0"/>
<connection from="7943a-2" to="5fd96-0-re"/>
<connection from="7943a-2-re" to="5fd96-0"/>
<connection from="7943a-2-re" to="5fd96-0-re"/>
<connection from="5fd96-0" to="cc84d-0"/>
<connection from="5fd96-0" to="7943a-2"/>
<connection from="5fd96-0" to="cc84d-0-re"/>
<connection from="5fd96-0" to="7943a-2-re"/>
<connection from="5fd96-0-re" to="cc84d-0"/>
<connection from="5fd96-0-re" to="7943a-2"/>
<connection from="5fd96-0-re" to="cc84d-0-re"/>
<connection from="5fd96-0-re" to="7943a-2-re"/>
<!-- Point b8386 253a93ca-8d77-4ebf-816b-844dad8b8386 -->
<connection from="5fd96-2" to="aa8a0-0"/>
<connection from="5fd96-2" to="aa8a0-0-re"/>
<connection from="5fd96-2-re" to="aa8a0-0"/>
<connection from="5fd96-2-re" to="aa8a0-0-re"/>
<connection from="e96d0-0" to="aa8a0-0"/>
<connection from="e96d0-0" to="aa8a0-0-re"/>
<connection from="e96d0-0-re" to="aa8a0-0"/>
<connection from="e96d0-0-re" to="aa8a0-0-re"/>
<connection from="aa8a0-0" to="5fd96-2"/>
<connection from="aa8a0-0" to="e96d0-0"/>
<connection from="aa8a0-0" to="5fd96-2-re"/>
<connection from="aa8a0-0" to="e96d0-0-re"/>
<connection from="aa8a0-0-re" to="5fd96-2"/>
<connection from="aa8a0-0-re" to="e96d0-0"/>
<connection from="aa8a0-0-re" to="5fd96-2-re"/>
<connection from="aa8a0-0-re" to="e96d0-0-re"/>
<!-- Point e4d22 1780c5fe-7788-4422-b2b8-cbf51dae4d22 -->
<connection from="0b432-0" to="cdcf3-0"/>
<connection from="0b432-0" to="cdcf3-0-re"/>
<connection from="0b432-0-re" to="cdcf3-0"/>
<connection from="0b432-0-re" to="cdcf3-0-re"/>
<connection from="521e7-0" to="cdcf3-0"/>
<connection from="521e7-0" to="cdcf3-0-re"/>
<connection from="521e7-0-re" to="cdcf3-0"/>
<connection from="521e7-0-re" to="cdcf3-0-re"/>
<connection from="cdcf3-0" to="0b432-0"/>
<connection from="cdcf3-0" to="521e7-0"/>
<connection from="cdcf3-0" to="0b432-0-re"/>
<connection from="cdcf3-0" to="521e7-0-re"/>
<connection from="cdcf3-0-re" to="0b432-0"/>
<connection from="cdcf3-0-re" to="521e7-0"/>
<connection from="cdcf3-0-re" to="0b432-0-re"/>
<connection from="cdcf3-0-re" to="521e7-0-re"/>
<!-- Point 88406 6907860f-9dcc-4e52-a3d5-1a9ed1c88406 -->
<connection from="f4177-0" to="53446-0"/>
<connection from="f4177-0" to="53446-0-re"/>
<connection from="f4177-0-re" to="53446-0"/>
<connection from="f4177-0-re" to="53446-0-re"/>
<connection from="93f86-0" to="53446-0"/>
<connection from="93f86-0" to="53446-0-re"/>
<connection from="93f86-0-re" to="53446-0"/>
<connection from="93f86-0-re" to="53446-0-re"/>
<connection from="53446-0" to="f4177-0"/>
<connection from="53446-0" to="93f86-0"/>
<connection from="53446-0" to="f4177-0-re"/>
<connection from="53446-0" to="93f86-0-re"/>
<connection from="53446-0-re" to="f4177-0"/>
<connection from="53446-0-re" to="93f86-0"/>
<connection from="53446-0-re" to="f4177-0-re"/>
<connection from="53446-0-re" to="93f86-0-re"/>
<!-- Point fad80 6ee0a7e7-9cca-4a82-831b-c4b0551fad80 -->
<connection from="2b4ca-0" to="cb171-0"/>
<connection from="2b4ca-0" to="cb171-0-re"/>
<connection from="2b4ca-0-re" to="cb171-0"/>
<connection from="2b4ca-0-re" to="cb171-0-re"/>
<connection from="93f86-2" to="cb171-0"/>
<connection from="93f86-2" to="cb171-0-re"/>
<connection from="93f86-2-re" to="cb171-0"/>
<connection from="93f86-2-re" to="cb171-0-re"/>
<connection from="cb171-0" to="2b4ca-0"/>
<connection from="cb171-0" to="93f86-2"/>
<connection from="cb171-0" to="2b4ca-0-re"/>
<connection from="cb171-0" to="93f86-2-re"/>
<connection from="cb171-0-re" to="2b4ca-0"/>
<connection from="cb171-0-re" to="93f86-2"/>
<connection from="cb171-0-re" to="2b4ca-0-re"/>
<connection from="cb171-0-re" to="93f86-2-re"/>
<!-- Point 34d96 6059b284-b33e-4658-9c72-7efa17234d96 -->
<connection from="5f880-0" to="c0625-0"/>
<connection from="5f880-0" to="c0625-0-re"/>
<connection from="5f880-0-re" to="c0625-0"/>
<connection from="5f880-0-re" to="c0625-0-re"/>
<connection from="f4183-0" to="c0625-0"/>
<connection from="f4183-0" to="c0625-0-re"/>
<connection from="f4183-0-re" to="c0625-0"/>
<connection from="f4183-0-re" to="c0625-0-re"/>
<connection from="c0625-0" to="5f880-0"/>
<connection from="c0625-0" to="f4183-0"/>
<connection from="c0625-0" to="5f880-0-re"/>
<connection from="c0625-0" to="f4183-0-re"/>
<connection from="c0625-0-re" to="5f880-0"/>
<connection from="c0625-0-re" to="f4183-0"/>
<connection from="c0625-0-re" to="5f880-0-re"/>
<connection from="c0625-0-re" to="f4183-0-re"/>

<!-- Point 39a74 a26a0502-0d08-4351-8846-3246e8f39a74 -->
<connection from="354d4-0" to="8f70f-0"/>
<connection from="354d4-0" to="8f70f-0-re"/>
<connection from="354d4-0-re" to="8f70f-0"/>
<connection from="354d4-0-re" to="8f70f-0-re"/>
<connection from="ec15f-0" to="8f70f-0"/>
<connection from="ec15f-0" to="8f70f-0-re"/>
<connection from="ec15f-0-re" to="8f70f-0"/>
<connection from="ec15f-0-re" to="8f70f-0-re"/>
<connection from="8f70f-0" to="354d4-0"/>
<connection from="8f70f-0" to="ec15f-0"/>
<connection from="8f70f-0" to="354d4-0-re"/>
<connection from="8f70f-0" to="ec15f-0-re"/>
<connection from="8f70f-0-re" to="354d4-0"/>
<connection from="8f70f-0-re" to="ec15f-0"/>
<connection from="8f70f-0-re" to="354d4-0-re"/>
<connection from="8f70f-0-re" to="ec15f-0-re"/>
<!-- Point d4db0 99578109-ea71-4ae7-bacc-591fa19d4db0 -->
<connection from="f17e1-0" to="ec15f-0"/>
<connection from="f17e1-0" to="ec15f-0-re"/>
<connection from="f17e1-0-re" to="ec15f-0"/>
<connection from="f17e1-0-re" to="ec15f-0-re"/>
<connection from="bd922-0" to="ec15f-0"/>
<connection from="bd922-0" to="ec15f-0-re"/>
<connection from="bd922-0-re" to="ec15f-0"/>
<connection from="bd922-0-re" to="ec15f-0-re"/>
<connection from="ec15f-0" to="f17e1-0"/>
<connection from="ec15f-0" to="bd922-0"/>
<connection from="ec15f-0" to="f17e1-0-re"/>
<connection from="ec15f-0" to="bd922-0-re"/>
<connection from="ec15f-0-re" to="f17e1-0"/>
<connection from="ec15f-0-re" to="bd922-0"/>
<connection from="ec15f-0-re" to="f17e1-0-re"/>
<connection from="ec15f-0-re" to="bd922-0-re"/>
<!-- Point c9d44 3ce1a950-2b81-4c80-b3be-c15a866c9d44 -->
<connection from="23434-0" to="d158c-0"/>
<connection from="23434-0" to="d158c-0-re"/>
<connection from="23434-0-re" to="d158c-0"/>
<connection from="23434-0-re" to="d158c-0-re"/>
<connection from="bd922-2" to="d158c-0"/>
<connection from="bd922-2" to="d158c-0-re"/>
<connection from="bd922-2-re" to="d158c-0"/>
<connection from="bd922-2-re" to="d158c-0-re"/>
<connection from="d158c-0" to="23434-0"/>
<connection from="d158c-0" to="bd922-2"/>
<connection from="d158c-0" to="23434-0-re"/>
<connection from="d158c-0" to="bd922-2-re"/>
<connection from="d158c-0-re" to="23434-0"/>
<connection from="d158c-0-re" to="bd922-2"/>
<connection from="d158c-0-re" to="23434-0-re"/>
<connection from="d158c-0-re" to="bd922-2-re"/>
<!-- Point 618e4 2e326079-84fa-41b3-b16b-4955324618e4 -->
<connection from="d158c-0" to="54cb0-0"/>
<connection from="d158c-0" to="54cb0-0-re"/>
<connection from="d158c-0-re" to="54cb0-0"/>
<connection from="d158c-0-re" to="54cb0-0-re"/>
<connection from="16863-0" to="54cb0-0"/>
<connection from="16863-0" to="54cb0-0-re"/>
<connection from="16863-0-re" to="54cb0-0"/>
<connection from="16863-0-re" to="54cb0-0-re"/>
<connection from="54cb0-0" to="d158c-0"/>
<connection from="54cb0-0" to="16863-0"/>
<connection from="54cb0-0" to="d158c-0-re"/>
<connection from="54cb0-0" to="16863-0-re"/>
<connection from="54cb0-0-re" to="d158c-0"/>
<connection from="54cb0-0-re" to="16863-0"/>
<connection from="54cb0-0-re" to="d158c-0-re"/>
<connection from="54cb0-0-re" to="16863-0-re"/>
<!-- Point 112fe e8637e3b-f583-4193-8815-5b53df8112fe -->
<connection from="54cb0-0" to="ad640-0"/>
<connection from="54cb0-0" to="ad640-0-re"/>
<connection from="54cb0-0-re" to="ad640-0"/>
<connection from="54cb0-0-re" to="ad640-0-re"/>
<connection from="8f66d-0" to="ad640-0"/>
<connection from="8f66d-0" to="ad640-0-re"/>
<connection from="8f66d-0-re" to="ad640-0"/>
<connection from="8f66d-0-re" to="ad640-0-re"/>
<connection from="ad640-0" to="54cb0-0"/>
<connection from="ad640-0" to="8f66d-0"/>
<connection from="ad640-0" to="54cb0-0-re"/>
<connection from="ad640-0" to="8f66d-0-re"/>
<connection from="ad640-0-re" to="54cb0-0"/>
<connection from="ad640-0-re" to="8f66d-0"/>
<connection from="ad640-0-re" to="54cb0-0-re"/>
<connection from="ad640-0-re" to="8f66d-0-re"/>
<!-- Point eff08 dd267153-2122-4f6d-8388-d1ca6bbeff08 -->
<connection from="c2636-0" to="ad640-2"/>
<connection from="c2636-0" to="ad640-2-re"/>
<connection from="c2636-0-re" to="ad640-2"/>
<connection from="c2636-0-re" to="ad640-2-re"/>
<connection from="b6792-0" to="ad640-2"/>
<connection from="b6792-0" to="ad640-2-re"/>
<connection from="b6792-0-re" to="ad640-2"/>
<connection from="b6792-0-re" to="ad640-2-re"/>
<connection from="ad640-2" to="c2636-0"/>
<connection from="ad640-2" to="b6792-0"/>
<connection from="ad640-2" to="c2636-0-re"/>
<connection from="ad640-2" to="b6792-0-re"/>
<connection from="ad640-2-re" to="c2636-0"/>
<connection from="ad640-2-re" to="b6792-0"/>
<connection from="ad640-2-re" to="c2636-0-re"/>
<connection from="ad640-2-re" to="b6792-0-re"/>
<!-- Point 50d8b 3d0ebf69-06da-4d5b-91fa-2c5243f50d8b -->
<connection from="d0938-0" to="4e3a0-0"/>
<connection from="d0938-0" to="4e3a0-0-re"/>
<connection from="d0938-0-re" to="4e3a0-0"/>
<connection from="d0938-0-re" to="4e3a0-0-re"/>
<connection from="b6792-2" to="4e3a0-0"/>
<connection from="b6792-2" to="4e3a0-0-re"/>
<connection from="b6792-2-re" to="4e3a0-0"/>
<connection from="b6792-2-re" to="4e3a0-0-re"/>
<connection from="4e3a0-0" to="d0938-0"/>
<connection from="4e3a0-0" to="b6792-2"/>
<connection from="4e3a0-0" to="d0938-0-re"/>
<connection from="4e3a0-0" to="b6792-2-re"/>
<connection from="4e3a0-0-re" to="d0938-0"/>
<connection from="4e3a0-0-re" to="b6792-2"/>
<connection from="4e3a0-0-re" to="d0938-0-re"/>
<connection from="4e3a0-0-re" to="b6792-2-re"/>
<!-- Point 48f38 3086d196-6c72-4ee7-bb82-946d72748f38 -->
<connection from="9efc9-0" to="88c31-0"/>
<connection from="9efc9-0" to="88c31-0-re"/>
<connection from="9efc9-0-re" to="88c31-0"/>
<connection from="9efc9-0-re" to="88c31-0-re"/>
<connection from="4cd66-0" to="88c31-0"/>
<connection from="4cd66-0" to="88c31-0-re"/>
<connection from="4cd66-0-re" to="88c31-0"/>
<connection from="4cd66-0-re" to="88c31-0-re"/>
<connection from="88c31-0" to="9efc9-0"/>
<connection from="88c31-0" to="4cd66-0"/>
<connection from="88c31-0" to="9efc9-0-re"/>
<connection from="88c31-0" to="4cd66-0-re"/>
<connection from="88c31-0-re" to="9efc9-0"/>
<connection from="88c31-0-re" to="4cd66-0"/>
<connection from="88c31-0-re" to="9efc9-0-re"/>
<connection from="88c31-0-re" to="4cd66-0-re"/>

<!-- Point 0ab0c 725e6712-d7b8-43fc-8152-e55c7200ab0c -->
<connection from="cb057-0" to="382b8-0"/>
<connection from="cb057-0" to="382b8-0-re"/>
<connection from="cb057-0-re" to="382b8-0"/>
<connection from="cb057-0-re" to="382b8-0-re"/>
<connection from="3b2ea-0" to="382b8-0"/>
<connection from="3b2ea-0" to="382b8-0-re"/>
<connection from="3b2ea-0-re" to="382b8-0"/>
<connection from="3b2ea-0-re" to="382b8-0-re"/>
<connection from="382b8-0" to="cb057-0"/>
<connection from="382b8-0" to="3b2ea-0"/>
<connection from="382b8-0" to="cb057-0-re"/>
<connection from="382b8-0" to="3b2ea-0-re"/>
<connection from="382b8-0-re" to="cb057-0"/>
<connection from="382b8-0-re" to="3b2ea-0"/>
<connection from="382b8-0-re" to="cb057-0-re"/>
<connection from="382b8-0-re" to="3b2ea-0-re"/>
<!-- Point cb2d5 98713bd2-0840-4820-9874-2514000cb2d5 -->
<connection from="cb057-2" to="5c8f7-0"/>
<connection from="cb057-2" to="5c8f7-0-re"/>
<connection from="cb057-2-re" to="5c8f7-0"/>
<connection from="cb057-2-re" to="5c8f7-0-re"/>
<connection from="0cf0c-0" to="5c8f7-0"/>
<connection from="0cf0c-0" to="5c8f7-0-re"/>
<connection from="0cf0c-0-re" to="5c8f7-0"/>
<connection from="0cf0c-0-re" to="5c8f7-0-re"/>
<connection from="5c8f7-0" to="cb057-2"/>
<connection from="5c8f7-0" to="0cf0c-0"/>
<connection from="5c8f7-0" to="cb057-2-re"/>
<connection from="5c8f7-0" to="0cf0c-0-re"/>
<connection from="5c8f7-0-re" to="cb057-2"/>
<connection from="5c8f7-0-re" to="0cf0c-0"/>
<connection from="5c8f7-0-re" to="cb057-2-re"/>
<connection from="5c8f7-0-re" to="0cf0c-0-re"/>
<!-- Point 525ad e2b44814-2528-410f-abd0-6e654be525ad -->
<connection from="c8d27-0" to="5c8f7-0"/>
<connection from="c8d27-0" to="5c8f7-0-re"/>
<connection from="c8d27-0-re" to="5c8f7-0"/>
<connection from="c8d27-0-re" to="5c8f7-0-re"/>
<connection from="cff01-0" to="5c8f7-0"/>
<connection from="cff01-0" to="5c8f7-0-re"/>
<connection from="cff01-0-re" to="5c8f7-0"/>
<connection from="cff01-0-re" to="5c8f7-0-re"/>
<connection from="5c8f7-0" to="c8d27-0"/>
<connection from="5c8f7-0" to="cff01-0"/>
<connection from="5c8f7-0" to="c8d27-0-re"/>
<connection from="5c8f7-0" to="cff01-0-re"/>
<connection from="5c8f7-0-re" to="c8d27-0"/>
<connection from="5c8f7-0-re" to="cff01-0"/>
<connection from="5c8f7-0-re" to="c8d27-0-re"/>
<connection from="5c8f7-0-re" to="cff01-0-re"/>
<!-- Point 62b61 16fa87f6-cacc-4426-b930-dbc1d6462b61 -->
<connection from="e44f6-0" to="5af69-0"/>
<connection from="e44f6-0" to="5af69-0-re"/>
<connection from="e44f6-0-re" to="5af69-0"/>
<connection from="e44f6-0-re" to="5af69-0-re"/>
<connection from="55031-0" to="5af69-0"/>
<connection from="55031-0" to="5af69-0-re"/>
<connection from="55031-0-re" to="5af69-0"/>
<connection from="55031-0-re" to="5af69-0-re"/>
<connection from="5af69-0" to="e44f6-0"/>
<connection from="5af69-0" to="55031-0"/>
<connection from="5af69-0" to="e44f6-0-re"/>
<connection from="5af69-0" to="55031-0-re"/>
<connection from="5af69-0-re" to="e44f6-0"/>
<connection from="5af69-0-re" to="55031-0"/>
<connection from="5af69-0-re" to="e44f6-0-re"/>
<connection from="5af69-0-re" to="55031-0-re"/>
<!-- Point ca050 f794f938-7646-4815-a582-cc072f0ca050 -->
<connection from="c8edf-0" to="cb171-2"/>
<connection from="c8edf-0" to="cb171-2-re"/>
<connection from="c8edf-0-re" to="cb171-2"/>
<connection from="c8edf-0-re" to="cb171-2-re"/>
<connection from="0b46e-0" to="cb171-2"/>
<connection from="0b46e-0" to="cb171-2-re"/>
<connection from="0b46e-0-re" to="cb171-2"/>
<connection from="0b46e-0-re" to="cb171-2-re"/>
<connection from="cb171-2" to="c8edf-0"/>
<connection from="cb171-2" to="0b46e-0"/>
<connection from="cb171-2" to="c8edf-0-re"/>
<connection from="cb171-2" to="0b46e-0-re"/>
<connection from="cb171-2-re" to="c8edf-0"/>
<connection from="cb171-2-re" to="0b46e-0"/>
<connection from="cb171-2-re" to="c8edf-0-re"/>
<connection from="cb171-2-re" to="0b46e-0-re"/>
<!-- Point 5a7fc e67ee53d-6745-4704-9309-251a7ed5a7fc -->
<connection from="00b60-0" to="37ca7-0"/>
<connection from="00b60-0" to="37ca7-0-re"/>
<connection from="00b60-0-re" to="37ca7-0"/>
<connection from="00b60-0-re" to="37ca7-0-re"/>
<connection from="c8edf-2" to="37ca7-0"/>
<connection from="c8edf-2" to="37ca7-0-re"/>
<connection from="c8edf-2-re" to="37ca7-0"/>
<connection from="c8edf-2-re" to="37ca7-0-re"/>
<connection from="37ca7-0" to="00b60-0"/>
<connection from="37ca7-0" to="c8edf-2"/>
<connection from="37ca7-0" to="00b60-0-re"/>
<connection from="37ca7-0" to="c8edf-2-re"/>
<connection from="37ca7-0-re" to="00b60-0"/>
<connection from="37ca7-0-re" to="c8edf-2"/>
<connection from="37ca7-0-re" to="00b60-0-re"/>
<connection from="37ca7-0-re" to="c8edf-2-re"/>
<!-- Point 3afdf a2ba8df2-26d8-4feb-a3ec-48602983afdf -->
<connection from="65635-0" to="37ca7-0"/>
<connection from="65635-0" to="37ca7-0-re"/>
<connection from="65635-0-re" to="37ca7-0"/>
<connection from="65635-0-re" to="37ca7-0-re"/>
<connection from="7f155-0" to="37ca7-0"/>
<connection from="7f155-0" to="37ca7-0-re"/>
<connection from="7f155-0-re" to="37ca7-0"/>
<connection from="7f155-0-re" to="37ca7-0-re"/>
<connection from="37ca7-0" to="65635-0"/>
<connection from="37ca7-0" to="7f155-0"/>
<connection from="37ca7-0" to="65635-0-re"/>
<connection from="37ca7-0" to="7f155-0-re"/>
<connection from="37ca7-0-re" to="65635-0"/>
<connection from="37ca7-0-re" to="7f155-0"/>
<connection from="37ca7-0-re" to="65635-0-re"/>
<connection from="37ca7-0-re" to="7f155-0-re"/>
<!-- Point 68a05 66d5bebe-cf68-4251-b5d7-ddbee4668a05 -->
<connection from="7f155-2" to="c0625-0"/>
<connection from="7f155-2" to="c0625-0-re"/>
<connection from="7f155-2-re" to="c0625-0"/>
<connection from="7f155-2-re" to="c0625-0-re"/>
<connection from="7da61-0" to="c0625-0"/>
<connection from="7da61-0" to="c0625-0-re"/>
<connection from="7da61-0-re" to="c0625-0"/>
<connection from="7da61-0-re" to="c0625-0-re"/>
<connection from="c0625-0" to="7f155-2"/>
<connection from="c0625-0" to="7da61-0"/>
<connection from="c0625-0" to="7f155-2-re"/>
<connection from="c0625-0" to="7da61-0-re"/>
<connection from="c0625-0-re" to="7f155-2"/>
<connection from="c0625-0-re" to="7da61-0"/>
<connection from="c0625-0-re" to="7f155-2-re"/>
<connection from="c0625-0-re" to="7da61-0-re"/>
<!-- Point fe613 c5ba5643-5ade-4598-8275-c04e74cfe613 -->
<connection from="abbd5-0" to="7e384-0"/>
<connection from="abbd5-0" to="7e384-0-re"/>
<connection from="abbd5-0-re" to="7e384-0"/>
<connection from="abbd5-0-re" to="7e384-0-re"/>
<connection from="5af69-14" to="7e384-0"/>
<connection from="5af69-14" to="7e384-0-re"/>
<connection from="5af69-14-re" to="7e384-0"/>
<connection from="5af69-14-re" to="7e384-0-re"/>
<connection from="7e384-0" to="abbd5-0"/>
<connection from="7e384-0" to="5af69-14"/>
<connection from="7e384-0" to="abbd5-0-re"/>
<connection from="7e384-0" to="5af69-14-re"/>
<connection from="7e384-0-re" to="abbd5-0"/>
<connection from="7e384-0-re" to="5af69-14"/>
<connection from="7e384-0-re" to="abbd5-0-re"/>
<connection from="7e384-0-re" to="5af69-14-re"/>
<!-- Point 648ac 124e5c71-77fc-4223-b25e-9f51260648ac -->
<connection from="e3ff2-0" to="dc978-0"/>
<connection from="e3ff2-0" to="dc978-0-re"/>
<connection from="e3ff2-0-re" to="dc978-0"/>
<connection from="e3ff2-0-re" to="dc978-0-re"/>
<connection from="7e0f7-0" to="dc978-0"/>
<connection from="7e0f7-0" to="dc978-0-re"/>
<connection from="7e0f7-0-re" to="dc978-0"/>
<connection from="7e0f7-0-re" to="dc978-0-re"/>
<connection from="dc978-0" to="e3ff2-0"/>
<connection from="dc978-0" to="7e0f7-0"/>
<connection from="dc978-0" to="e3ff2-0-re"/>
<connection from="dc978-0" to="7e0f7-0-re"/>
<connection from="dc978-0-re" to="e3ff2-0"/>
<connection from="dc978-0-re" to="7e0f7-0"/>
<connection from="dc978-0-re" to="e3ff2-0-re"/>
<connection from="dc978-0-re" to="7e0f7-0-re"/>

<!-- Point 2703c 22f2a028-7e39-47cd-bda6-a68ddcf2703c -->
<connection from="32694-3" to="05dfe-0"/>
<connection from="32694-3" to="05dfe-0-re"/>
<connection from="32694-3-re" to="05dfe-0"/>
<connection from="32694-3-re" to="05dfe-0-re"/>
<connection from="1b910-0" to="05dfe-0"/>
<connection from="1b910-0" to="05dfe-0-re"/>
<connection from="1b910-0-re" to="05dfe-0"/>
<connection from="1b910-0-re" to="05dfe-0-re"/>
<connection from="05dfe-0" to="32694-3"/>
<connection from="05dfe-0" to="1b910-0"/>
<connection from="05dfe-0" to="32694-3-re"/>
<connection from="05dfe-0" to="1b910-0-re"/>
<connection from="05dfe-0-re" to="32694-3"/>
<connection from="05dfe-0-re" to="1b910-0"/>
<connection from="05dfe-0-re" to="32694-3-re"/>
<connection from="05dfe-0-re" to="1b910-0-re"/>

<!-- Point 8be9f 7b373701-64bc-47e0-b587-44d91948be9f -->
<connection from="05dfe-2" to="b442a-0"/>
<connection from="05dfe-2" to="b442a-0-re"/>
<connection from="05dfe-2-re" to="b442a-0"/>
<connection from="05dfe-2-re" to="b442a-0-re"/>
<connection from="5731d-0" to="b442a-0"/>
<connection from="5731d-0" to="b442a-0-re"/>
<connection from="5731d-0-re" to="b442a-0"/>
<connection from="5731d-0-re" to="b442a-0-re"/>
<connection from="b442a-0" to="05dfe-2"/>
<connection from="b442a-0" to="5731d-0"/>
<connection from="b442a-0" to="05dfe-2-re"/>
<connection from="b442a-0" to="5731d-0-re"/>
<connection from="b442a-0-re" to="05dfe-2"/>
<connection from="b442a-0-re" to="5731d-0"/>
<connection from="b442a-0-re" to="05dfe-2-re"/>
<connection from="b442a-0-re" to="5731d-0-re"/>
<!-- Point 3dc25 a29642e2-0890-47ba-ad20-c7d42c93dc25 -->
<connection from="11d79-0" to="f237d-0"/>
<connection from="11d79-0" to="f237d-0-re"/>
<connection from="11d79-0-re" to="f237d-0"/>
<connection from="11d79-0-re" to="f237d-0-re"/>
<connection from="b442a-2" to="f237d-0"/>
<connection from="b442a-2" to="f237d-0-re"/>
<connection from="b442a-2-re" to="f237d-0"/>
<connection from="b442a-2-re" to="f237d-0-re"/>
<connection from="f237d-0" to="11d79-0"/>
<connection from="f237d-0" to="b442a-2"/>
<connection from="f237d-0" to="11d79-0-re"/>
<connection from="f237d-0" to="b442a-2-re"/>
<connection from="f237d-0-re" to="11d79-0"/>
<connection from="f237d-0-re" to="b442a-2"/>
<connection from="f237d-0-re" to="11d79-0-re"/>
<connection from="f237d-0-re" to="b442a-2-re"/>
<!-- Point f6e7c d57367da-6b47-4eb2-8c22-f31c1def6e7c -->
<connection from="c6571-0" to="f237d-0"/>
<connection from="c6571-0" to="f237d-0-re"/>
<connection from="c6571-0-re" to="f237d-0"/>
<connection from="c6571-0-re" to="f237d-0-re"/>
<connection from="56216-0" to="f237d-0"/>
<connection from="56216-0" to="f237d-0-re"/>
<connection from="56216-0-re" to="f237d-0"/>
<connection from="56216-0-re" to="f237d-0-re"/>
<connection from="f237d-0" to="c6571-0"/>
<connection from="f237d-0" to="56216-0"/>
<connection from="f237d-0" to="c6571-0-re"/>
<connection from="f237d-0" to="56216-0-re"/>
<connection from="f237d-0-re" to="c6571-0"/>
<connection from="f237d-0-re" to="56216-0"/>
<connection from="f237d-0-re" to="c6571-0-re"/>
<connection from="f237d-0-re" to="56216-0-re"/>
<!-- Point 301a0 e7d188d7-1905-4c0d-98b4-62a09e8301a0 -->
<connection from="6c07d-0" to="1b652-0"/>
<connection from="6c07d-0" to="1b652-0-re"/>
<connection from="6c07d-0-re" to="1b652-0"/>
<connection from="6c07d-0-re" to="1b652-0-re"/>
<connection from="c6571-2" to="1b652-0"/>
<connection from="c6571-2" to="1b652-0-re"/>
<connection from="c6571-2-re" to="1b652-0"/>
<connection from="c6571-2-re" to="1b652-0-re"/>
<connection from="1b652-0" to="6c07d-0"/>
<connection from="1b652-0" to="c6571-2"/>
<connection from="1b652-0" to="6c07d-0-re"/>
<connection from="1b652-0" to="c6571-2-re"/>
<connection from="1b652-0-re" to="6c07d-0"/>
<connection from="1b652-0-re" to="c6571-2"/>
<connection from="1b652-0-re" to="6c07d-0-re"/>
<connection from="1b652-0-re" to="c6571-2-re"/>
<!-- Point ee5a4 0832d1fe-e8c7-499d-8a1e-675d822ee5a4 -->
<connection from="817c6-0" to="1b652-2"/>
<connection from="817c6-0" to="1b652-2-re"/>
<connection from="817c6-0-re" to="1b652-2"/>
<connection from="817c6-0-re" to="1b652-2-re"/>
<connection from="f7d05-0" to="1b652-2"/>
<connection from="f7d05-0" to="1b652-2-re"/>
<connection from="f7d05-0-re" to="1b652-2"/>
<connection from="f7d05-0-re" to="1b652-2-re"/>
<connection from="1b652-2" to="817c6-0"/>
<connection from="1b652-2" to="f7d05-0"/>
<connection from="1b652-2" to="817c6-0-re"/>
<connection from="1b652-2" to="f7d05-0-re"/>
<connection from="1b652-2-re" to="817c6-0"/>
<connection from="1b652-2-re" to="f7d05-0"/>
<connection from="1b652-2-re" to="817c6-0-re"/>
<connection from="1b652-2-re" to="f7d05-0-re"/>
<!-- Point 8dce5 29ef9c80-2339-483d-ab0f-068e9b88dce5 -->
<connection from="720e6-0" to="07643-0"/>
<connection from="720e6-0" to="07643-0-re"/>
<connection from="720e6-0-re" to="07643-0"/>
<connection from="720e6-0-re" to="07643-0-re"/>
<connection from="817c6-2" to="07643-0"/>
<connection from="817c6-2" to="07643-0-re"/>
<connection from="817c6-2-re" to="07643-0"/>
<connection from="817c6-2-re" to="07643-0-re"/>
<connection from="07643-0" to="720e6-0"/>
<connection from="07643-0" to="817c6-2"/>
<connection from="07643-0" to="720e6-0-re"/>
<connection from="07643-0" to="817c6-2-re"/>
<connection from="07643-0-re" to="720e6-0"/>
<connection from="07643-0-re" to="817c6-2"/>
<connection from="07643-0-re" to="720e6-0-re"/>
<connection from="07643-0-re" to="817c6-2-re"/>
<!-- Point 1944c 42382cf4-3894-4a5f-9aff-67454b71944c -->
<connection from="07643-2" to="8dbe0-0"/>
<connection from="07643-2" to="8dbe0-0-re"/>
<connection from="07643-2-re" to="8dbe0-0"/>
<connection from="07643-2-re" to="8dbe0-0-re"/>
<connection from="afe9a-0" to="8dbe0-0"/>
<connection from="afe9a-0" to="8dbe0-0-re"/>
<connection from="afe9a-0-re" to="8dbe0-0"/>
<connection from="afe9a-0-re" to="8dbe0-0-re"/>
<connection from="8dbe0-0" to="07643-2"/>
<connection from="8dbe0-0" to="afe9a-0"/>
<connection from="8dbe0-0" to="07643-2-re"/>
<connection from="8dbe0-0" to="afe9a-0-re"/>
<connection from="8dbe0-0-re" to="07643-2"/>
<connection from="8dbe0-0-re" to="afe9a-0"/>
<connection from="8dbe0-0-re" to="07643-2-re"/>
<connection from="8dbe0-0-re" to="afe9a-0-re"/>
<!-- Point 1b845 594303f3-6fac-473a-b4ef-6161f0b1b845 -->
<connection from="096d4-0" to="3704f-0"/>
<connection from="096d4-0" to="3704f-0-re"/>
<connection from="096d4-0-re" to="3704f-0"/>
<connection from="096d4-0-re" to="3704f-0-re"/>
<connection from="424a6-0" to="3704f-0"/>
<connection from="424a6-0" to="3704f-0-re"/>
<connection from="424a6-0-re" to="3704f-0"/>
<connection from="424a6-0-re" to="3704f-0-re"/>
<connection from="3704f-0" to="096d4-0"/>
<connection from="3704f-0" to="424a6-0"/>
<connection from="3704f-0" to="096d4-0-re"/>
<connection from="3704f-0" to="424a6-0-re"/>
<connection from="3704f-0-re" to="096d4-0"/>
<connection from="3704f-0-re" to="424a6-0"/>
<connection from="3704f-0-re" to="096d4-0-re"/>
<connection from="3704f-0-re" to="424a6-0-re"/>
<!-- Point 6f6aa e3370ff1-26b1-4f6e-93d2-ac08fd76f6aa -->
<connection from="096d4-2" to="8b3a4-0"/>
<connection from="096d4-2" to="8b3a4-0-re"/>
<connection from="096d4-2-re" to="8b3a4-0"/>
<connection from="096d4-2-re" to="8b3a4-0-re"/>
<connection from="d8cbb-0" to="8b3a4-0"/>
<connection from="d8cbb-0" to="8b3a4-0-re"/>
<connection from="d8cbb-0-re" to="8b3a4-0"/>
<connection from="d8cbb-0-re" to="8b3a4-0-re"/>
<connection from="8b3a4-0" to="096d4-2"/>
<connection from="8b3a4-0" to="d8cbb-0"/>
<connection from="8b3a4-0" to="096d4-2-re"/>
<connection from="8b3a4-0" to="d8cbb-0-re"/>
<connection from="8b3a4-0-re" to="096d4-2"/>
<connection from="8b3a4-0-re" to="d8cbb-0"/>
<connection from="8b3a4-0-re" to="096d4-2-re"/>
<connection from="8b3a4-0-re" to="d8cbb-0-re"/>
<!-- Point f75f0 cd5708ea-436e-43fd-8887-5e1c746f75f0 -->
<connection from="65635-2" to="8b3a4-0"/>
<connection from="65635-2" to="8b3a4-0-re"/>
<connection from="65635-2-re" to="8b3a4-0"/>
<connection from="65635-2-re" to="8b3a4-0-re"/>
<connection from="3aa92-0" to="8b3a4-0"/>
<connection from="3aa92-0" to="8b3a4-0-re"/>
<connection from="3aa92-0-re" to="8b3a4-0"/>
<connection from="3aa92-0-re" to="8b3a4-0-re"/>
<connection from="8b3a4-0" to="65635-2"/>
<connection from="8b3a4-0" to="3aa92-0"/>
<connection from="8b3a4-0" to="65635-2-re"/>
<connection from="8b3a4-0" to="3aa92-0-re"/>
<connection from="8b3a4-0-re" to="65635-2"/>
<connection from="8b3a4-0-re" to="3aa92-0"/>
<connection from="8b3a4-0-re" to="65635-2-re"/>
<connection from="8b3a4-0-re" to="3aa92-0-re"/>
<!-- Point 5a128 42a84541-413f-43f7-9e78-41501565a128 -->
<connection from="c778e-0" to="3aa92-0"/>
<connection from="c778e-0" to="3aa92-0-re"/>
<connection from="c778e-0-re" to="3aa92-0"/>
<connection from="c778e-0-re" to="3aa92-0-re"/>
<connection from="dfdea-0" to="3aa92-0"/>
<connection from="dfdea-0" to="3aa92-0-re"/>
<connection from="dfdea-0-re" to="3aa92-0"/>
<connection from="dfdea-0-re" to="3aa92-0-re"/>
<connection from="3aa92-0" to="c778e-0"/>
<connection from="3aa92-0" to="dfdea-0"/>
<connection from="3aa92-0" to="c778e-0-re"/>
<connection from="3aa92-0" to="dfdea-0-re"/>
<connection from="3aa92-0-re" to="c778e-0"/>
<connection from="3aa92-0-re" to="dfdea-0"/>
<connection from="3aa92-0-re" to="c778e-0-re"/>
<connection from="3aa92-0-re" to="dfdea-0-re"/>
<!-- Point 67526 c928675d-5878-4651-98b7-528da0f67526 -->
<connection from="6c07d-2" to="7f86a-0"/>
<connection from="6c07d-2" to="7f86a-0-re"/>
<connection from="6c07d-2-re" to="7f86a-0"/>
<connection from="6c07d-2-re" to="7f86a-0-re"/>
<connection from="96248-0" to="7f86a-0"/>
<connection from="96248-0" to="7f86a-0-re"/>
<connection from="96248-0-re" to="7f86a-0"/>