<nodes>
<node id="fcb82" x="-4533770.0" y="-5625770.0" type="priority"/>
<node id="fb07c" x="-4533520.0" y="-5625770.0" type="priority"/>
<node id="6a62b" x="-4533420.0" y="-5625760.0" type="priority"/>
<node id="93b9b" x="-4533770.0" y="-5625780.0" type="priority"/>
<node id="f7d38" x="-4533720.0" y="-5625770.0" type="priority"/>
<node id="7448e" x="-4533670.0" y="-5625760.0" type="priority"/>
<node id="52ced" x="-4533670.0" y="-5625770.0" type="priority"/>
<node id="577c4" x="-4533470.0" y="-5625760.0" type="priority"/>
<node id="94a6f92a-0c2a-40dc-87d6-ccd0e55bf53d-km-25-in" x="-4533745.0" y="-5625770.0" type="rail_signal"/>
<node id="a51fad9c-2ac2-4f38-aae2-6eab45ae346e-km-25-gegen" x="-4533693.211917272" y="-5625779.284766909" type="rail_signal"/>
<node id="64f673bc-7d9f-4091-9110-2128e0285d3c-km-25-gegen" x="-4533645.0" y="-5625770.0" type="rail_signal"/>
<node id="61a1600e-997a-4c88-9ec0-89c53d884ef4-km-25-gegen" x="-4533645.0" y="-5625760.0" type="rail_signal"/>
<node id="61a1600e-997a-4c88-9ec0-89c53d884ef4-km-175-in" x="-4533495.0" y="-5625760.0" type="rail_signal"/>
<node id="8710dd8c-f9cc-4674-9956-197809e8f9a9-km-25-gegen" x="-4533646.788082728" y="-5625750.715233091" type="rail_signal"/>
<node id="8710dd8c-f9cc-4674-9956-197809e8f9a9-km-175-in" x="-4533496.925824036" y="-5625750.0" type="rail_signal"/>
<node id="f3a18358-b059-4033-94cc-9c79ffa4f644-km-25-gegen" x="-4533445.0" y="-5625760.0" type="rail_signal"/>
</nodes>
