<connections>




<!-- Point f7d38 4040036b-955e-4372-b2d1-387ca42f7d38 -->
<connection from="9a917-0" to="bf53d-1"/>
<connection from="9a917-0" to="bf53d-1-re"/>
<connection from="9a917-0-re" to="bf53d-1"/>
<connection from="9a917-0-re" to="bf53d-1-re"/>
<connection from="327be-0" to="bf53d-1"/>
<connection from="327be-0" to="bf53d-1-re"/>
<connection from="327be-0-re" to="bf53d-1"/>
<connection from="327be-0-re" to="bf53d-1-re"/>
<connection from="bf53d-1" to="9a917-0"/>
<connection from="bf53d-1" to="327be-0"/>
<connection from="bf53d-1" to="9a917-0-re"/>
<connection from="bf53d-1" to="327be-0-re"/>
<connection from="bf53d-1-re" to="9a917-0"/>
<connection from="bf53d-1-re" to="327be-0"/>
<connection from="bf53d-1-re" to="9a917-0-re"/>
<connection from="bf53d-1-re" to="327be-0-re"/>
<!-- Point 7448e 9eb72f10-f1f6-4d55-a9ed-7e20b8b7448e -->
<connection from="8f9a9-0" to="9a917-0"/>
<connection from="8f9a9-0" to="9a917-0-re"/>
<connection from="8f9a9-0-re" to="9a917-0"/>
<connection from="8f9a9-0-re" to="9a917-0-re"/>
<connection from="84ef4-0" to="9a917-0"/>
<connection from="84ef4-0" to="9a917-0-re"/>
<connection from="84ef4-0-re" to="9a917-0"/>
<connection from="84ef4-0-re" to="9a917-0-re"/>
<connection from="9a917-0" to="8f9a9-0"/>
<connection from="9a917-0" to="84ef4-0"/>
<connection from="9a917-0" to="8f9a9-0-re"/>
<connection from="9a917-0" to="84ef4-0-re"/>
<connection from="9a917-0-re" to="8f9a9-0"/>
<connection from="9a917-0-re" to="84ef4-0"/>
<connection from="9a917-0-re" to="8f9a9-0-re"/>
<connection from="9a917-0-re" to="84ef4-0-re"/>
<!-- Point 52ced de577f5b-82e2-49cf-9283-4581b2152ced -->
<connection from="e346e-0" to="85d3c-0"/>
<connection from="e346e-0" to="85d3c-0-re"/>
<connection from="e346e-0-re" to="85d3c-0"/>
<connection from="e346e-0-re" to="85d3c-0-re"/>
<connection from="327be-0" to="85d3c-0"/>
<connection from="327be-0" to="85d3c-0-re"/>
<connection from="327be-0-re" to="85d3c-0"/>
<connection from="327be-0-re" to="85d3c-0-re"/>
<connection from="85d3c-0" to="e346e-0"/>
<connection from="85d3c-0" to="327be-0"/>
<connection from="85d3c-0" to="e346e-0-re"/>
<connection from="85d3c-0" to="327be-0-re"/>
<connection from="85d3c-0-re" to="e346e-0"/>
<connection from="85d3c-0-re" to="327be-0"/>
<connection from="85d3c-0-re" to="e346e-0-re"/>
<connection from="85d3c-0-re" to="327be-0-re"/>
<!-- Point 577c4 89ee9453-ee4c-45aa-8303-2d7efcc577c4 -->
<connection from="84ef4-2" to="4f644-0"/>
<connection from="84ef4-2" to="4f644-0-re"/>
<connection from="84ef4-2-re" to="4f644-0"/>
<connection from="84ef4-2-re" to="4f644-0-re"/>
<connection from="8f9a9-2" to="4f644-0"/>
<connection from="8f9a9-2" to="4f644-0-re"/>
<connection from="8f9a9-2-re" to="4f644-0"/>
<connection from="8f9a9-2-re" to="4f644-0-re"/>
<connection from="4f644-0" to="84ef4-2"/>
<connection from="4f644-0" to="8f9a9-2"/>
<connection from="4f644-0" to="84ef4-2-re"/>
<connection from="4f644-0" to="8f9a9-2-re"/>
<connection from="4f644-0-re" to="84ef4-2"/>
<connection from="4f644-0-re" to="8f9a9-2"/>
<connection from="4f644-0-re" to="84ef4-2-re"/>
<connection from="4f644-0-re" to="8f9a9-2-re"/>
<!-- Signal 94a6f92a-0c2a-40dc-87d6-ccd0e55bf53d-km-25-in 315df9a5-090a-4159-9c24-81b141f98b3b -->
<connection from="bf53d-0" to="bf53d-1"/>
<connection from="bf53d-0" to="bf53d-1-re"/>
<connection from="bf53d-0-re" to="bf53d-1"/>
<connection from="bf53d-0-re" to="bf53d-1-re"/>
<connection from="bf53d-1" to="bf53d-0"/>
<connection from="bf53d-1" to="bf53d-0-re"/>
<connection from="bf53d-1-re" to="bf53d-0"/>
<connection from="bf53d-1-re" to="bf53d-0-re"/>
<!-- Signal a51fad9c-2ac2-4f38-aae2-6eab45ae346e-km-25-gegen 8c9d4beb-5df8-460d-bdd1-56191a427cd9 -->
<connection from="e346e-0" to="e346e-1"/>
<connection from="e346e-0" to="e346e-1-re"/>
<connection from="e346e-0-re" to="e346e-1"/>
<connection from="e346e-0-re" to="e346e-1-re"/>
<connection from="e346e-1" to="e346e-0"/>
<connection from="e346e-1" to="e346e-0-re"/>
<connection from="e346e-1-re" to="e346e-0"/>
<connection from="e346e-1-re" to="e346e-0-re"/>
<!-- Signal 64f673bc-7d9f-4091-9110-2128e0285d3c-km-25-gegen 673e9586-fccb-47b4-ac96-7d0f898d6656 -->
<connection from="85d3c-0" to="85d3c-1"/>
<connection from="85d3c-0" to="85d3c-1-re"/>
<connection from="85d3c-0-re" to="85d3c-1"/>
<connection from="85d3c-0-re" to="85d3c-1-re"/>
<connection from="85d3c-1" to="85d3c-0"/>
<connection from="85d3c-1" to="85d3c-0-re"/>
<connection from="85d3c-1-re" to="85d3c-0"/>
<connection from="85d3c-1-re" to="85d3c-0-re"/>
<!-- Signal 61a1600e-997a-4c88-9ec0-89c53d884ef4-km-25-gegen 6ba99f95-76f1-4a66-bc1f-3ac48e31e803 -->
<connection from="84ef4-0" to="84ef4-1"/>
<connection from="84ef4-0" to="84ef4-1-re"/>
<connection from="84ef4-0-re" to="84ef4-1"/>
<connection from="84ef4-0-re" to="84ef4-1-re"/>
<connection from="84ef4-1" to="84ef4-0"/>
<connection from="84ef4-1" to="84ef4-0-re"/>
<connection from="84ef4-1-re" to="84ef4-0"/>
<connection from="84ef4-1-re" to="84ef4-0-re"/>
<!-- Signal 61a1600e-997a-4c88-9ec0-89c53d884ef4-km-175-in 077f554a-351e-472e-bbd8-2fbdac844af3 -->
<connection from="84ef4-1" to="84ef4-2"/>
<connection from="84ef4-1" to="84ef4-2-re"/>
<connection from="84ef4-1-re" to="84ef4-2"/>
<connection from="84ef4-1-re" to="84ef4-2-re"/>
<connection from="84ef4-2" to="84ef4-1"/>
<connection from="84ef4-2" to="84ef4-1-re"/>
<connection from="84ef4-2-re" to="84ef4-1"/>
<connection from="84ef4-2-re" to="84ef4-1-re"/>
<!-- Signal 8710dd8c-f9cc-4674-9956-197809e8f9a9-km-25-gegen 638b70d2-d888-4b87-9f8b-d6156f3d1f10 -->
<connection from="8f9a9-0" to="8f9a9-1"/>
<connection from="8f9a9-0" to="8f9a9-1-re"/>
<connection from="8f9a9-0-re" to="8f9a9-1"/>
<connection from="8f9a9-0-re" to="8f9a9-1-re"/>
<connection from="8f9a9-1" to="8f9a9-0"/>
<connection from="8f9a9-1" to="8f9a9-0-re"/>
<connection from="8f9a9-1-re" to="8f9a9-0"/>
<connection from="8f9a9-1-re" to="8f9a9-0-re"/>
<!-- Signal 8710dd8c-f9cc-4674-9956-197809e8f9a9-km-175-in 7afb3e3b-9fdb-4811-b03a-4c70e82b781c -->
<connection from="8f9a9-1" to="8f9a9-2"/>
<connection from="8f9a9-1" to="8f9a9-2-re"/>
<connection from="8f9a9-1-re" to="8f9a9-2"/>
<connection from="8f9a9-1-re" to="8f9a9-2-re"/>
<connection from="8f9a9-2" to="8f9a9-1"/>
<connection from="8f9a9-2" to="8f9a9-1-re"/>
<connection from="8f9a9-2-re" to="8f9a9-1"/>
<connection from="8f9a9-2-re" to="8f9a9-1-re"/>
<!-- Signal f3a18358-b059-4033-94cc-9c79ffa4f644-km-25-gegen 835374aa-361b-4501-b70e-52f67aa75013 -->
<connection from="4f644-0" to="4f644-1"/>
<connection from="4f644-0" to="4f644-1-re"/>
<connection from="4f644-0-re" to="4f644-1"/>
<connection from="4f644-0-re" to="4f644-1-re"/>
<connection from="4f644-1" to="4f644-0"/>
<connection from="4f644-1" to="4f644-0-re"/>
<connection from="4f644-1-re" to="4f644-0"/>
<connection from="4f644-1-re" to="4f644-0-re"/>
</connections>
