<nodes>
<node id="127af" x="-4533770.0" y="-5625770.0" type="priority"/>
<node id="05727" x="-4533520.0" y="-5625770.0" type="priority"/>
<node id="ea816" x="-4533420.0" y="-5625760.0" type="priority"/>
<node id="61101" x="-4533770.0" y="-5625780.0" type="priority"/>
<node id="39034" x="-4533720.0" y="-5625770.0" type="priority"/>
<node id="15bae" x="-4533670.0" y="-5625760.0" type="priority"/>
<node id="cbe88" x="-4533670.0" y="-5625770.0" type="priority"/>
<node id="46c80" x="-4533470.0" y="-5625760.0" type="priority"/>
<node id="cc797e7a-d36a-4b22-b7c9-510678ea57e4-km-25-in" x="-4533745.0" y="-5625770.0" type="rail_signal"/>
<node id="f9b738b1-258c-457e-8734-86699efde525-km-25-gegen" x="-4533693.211917272" y="-5625779.284766909" type="rail_signal"/>
<node id="d58eb937-37bb-4f66-ae78-5e2ab079bb42-km-25-gegen" x="-4533645.0" y="-5625770.0" type="rail_signal"/>
<node id="74b5a339-3eb5-4853-9534-7a9cf7d58ab8-km-25-gegen" x="-4533645.0" y="-5625760.0" type="rail_signal"/>
<node id="74b5a339-3eb5-4853-9534-7a9cf7d58ab8-km-175-in" x="-4533495.0" y="-5625760.0" type="rail_signal"/>
<node id="91294974-73db-49b6-80fc-5b77ac32b879-km-25-gegen" x="-4533646.788082728" y="-5625750.715233091" type="rail_signal"/>
<node id="91294974-73db-49b6-80fc-5b77ac32b879-km-175-in" x="-4533496.925824036" y="-5625750.0" type="rail_signal"/>
<node id="6fe59d52-0da4-46fd-8deb-9e106dd0bf49-km-25-gegen" x="-4533445.0" y="-5625760.0" type="rail_signal"/>
</nodes>
