<?xml version="1.0" encoding="UTF-8"?>
<routes xmlns:xsi="http://www.w3.org/2001/XMLSchema-instance" xsi:noNamespaceSchemaLocation="http://sumo.dlr.de/xsd/routes_file.xsd">
	

	<vType id="regio" accel="2.5" decel="1.3" length="20.00" vClass="rail" color="193,18,28" />

	<vType id="ice" accel="5" decel="1.3" length="60.00" vClass="rail_electric" color="192,192,192" />

	<vType id="cargo" accel="2.5" decel="1.3" length="80.00" vClass="rail" color="30,30,30" />

</routes>
