<?xml version="1.0" encoding="UTF-8"?>
<routes xmlns:xsi="http://www.w3.org/2001/XMLSchema-instance" xsi:noNamespaceSchemaLocation="http://sumo.dlr.de/xsd/routes_file.xsd">
	<route edges="de525-1-re de525-0-re c6b16-0-re 29444-0 58ab8-0 58ab8-1" color="157,83,21" id="route_F9B738B1-258C-457E-8734-86699EFDE525-KM-25-GEGEN-74B5A339-3EB5-4853-9534-7A9CF7D58AB8-KM-175-IN"/>
	<route edges="9bb42-1-re 9bb42-0-re c6b16-0-re 29444-0 58ab8-0 58ab8-1" color="104,12,119" id="route_D58EB937-37BB-4F66-AE78-5E2AB079BB42-KM-25-GEGEN-74B5A339-3EB5-4853-9534-7A9CF7D58AB8-KM-175-IN"/>
	<route edges="58ab8-1 58ab8-2 2b879-2-re 2b879-1-re" color="78,64,8" id="route_74B5A339-3EB5-4853-9534-7A9CF7D58AB8-KM-175-IN-91294974-73DB-49B6-80FC-5B77AC32B879-KM-25-GEGEN"/>
	<route edges="58ab8-1-re 58ab8-0-re 2b879-0 2b879-1" color="228,86,21" id="route_74B5A339-3EB5-4853-9534-7A9CF7D58AB8-KM-25-GEGEN-91294974-73DB-49B6-80FC-5B77AC32B879-KM-175-IN"/>
	<route edges="2b879-1 2b879-2 58ab8-2-re 58ab8-1-re" color="29,143,103" id="route_91294974-73DB-49B6-80FC-5B77AC32B879-KM-175-IN-74B5A339-3EB5-4853-9534-7A9CF7D58AB8-KM-25-GEGEN"/>
	<route edges="2b879-1-re 2b879-0-re 58ab8-0 58ab8-1" color="255,81,98" id="route_91294974-73DB-49B6-80FC-5B77AC32B879-KM-25-GEGEN-74B5A339-3EB5-4853-9534-7A9CF7D58AB8-KM-175-IN"/>
	<route edges="0bf49-1-re 0bf49-0-re 58ab8-2-re 58ab8-1-re" color="72,21,250" id="route_6FE59D52-0DA4-46FD-8DEB-9E106DD0BF49-KM-25-GEGEN-74B5A339-3EB5-4853-9534-7A9CF7D58AB8-KM-25-GEGEN"/>

	<vType id="regio" accel="2.5" decel="1.3" length="20.00" vClass="rail" color="193,18,28" />

	<vType id="ice" accel="5" decel="1.3" length="60.00" vClass="rail_electric" color="192,192,192" />

	<vType id="cargo" accel="2.5" decel="1.3" length="80.00" vClass="rail" color="30,30,30" />

</routes>
