<?xml version="1.0" encoding="UTF-8"?>

<!-- generated on 2023-06-02 15:36:12 by Eclipse SUMO netconvert Version 1.12.0
<configuration xmlns:xsi="http://www.w3.org/2001/XMLSchema-instance" xsi:noNamespaceSchemaLocation="http://sumo.dlr.de/xsd/netconvertConfiguration.xsd">

    <input>
        <node-files value="sumo-config/example.nod.xml"/>
        <edge-files value="sumo-config/example.edg.xml"/>
        <connection-files value="sumo-config/example.con.xml"/>
    </input>

    <output>
        <output-file value="sumo-config/example.net.xml"/>
    </output>

    <railway>
        <railway.topology.repair value="true"/>
        <railway.topology.repair.connect-straight value="true"/>
        <railway.topology.repair.stop-turn value="true"/>
        <railway.topology.all-bidi value="false"/>
    </railway>

    <report>
        <aggregate-warnings value="5"/>
    </report>

</configuration>
-->

<net version="1.9" junctionCornerDetail="5" limitTurnSpeed="5.50" xmlns:xsi="http://www.w3.org/2001/XMLSchema-instance" xsi:noNamespaceSchemaLocation="http://sumo.dlr.de/xsd/net_file.xsd">

    <location netOffset="4533770.00,5625780.00" convBoundary="0.00,0.00,350.00,30.00" origBoundary="-4533770.00,-5625780.00,-4533420.00,-5625750.00" projParameter="!"/>

    <edge id=":52ced_0" function="internal" bidi=":52ced_3">
        <lane id=":52ced_0_0" index="0" allow="rail rail_electric" speed="110.00" length="11.62" shape="101.81,10.00 90.19,10.00"/>
    </edge>
    <edge id=":52ced_1" function="internal" bidi=":52ced_2">
        <lane id=":52ced_1_0" index="0" allow="rail rail_electric" speed="110.00" length="11.63" shape="101.81,10.00 98.65,9.69 96.22,8.88 93.85,7.71 90.89,6.36"/>
    </edge>
    <edge id=":52ced_2" function="internal" bidi=":52ced_1">
        <lane id=":52ced_2_0" index="0" allow="rail rail_electric" speed="110.00" length="11.63" shape="90.89,6.36 93.85,7.71 96.22,8.88 98.65,9.69 101.81,10.00"/>
    </edge>
    <edge id=":52ced_3" function="internal" bidi=":52ced_0">
        <lane id=":52ced_3_0" index="0" allow="rail rail_electric" speed="110.00" length="11.62" shape="90.19,10.00 101.81,10.00"/>
    </edge>
    <edge id=":577c4_0" function="internal" bidi=":577c4_3">
        <lane id=":577c4_0_0" index="0" allow="rail rail_electric" speed="110.00" length="11.63" shape="301.81,20.00 298.65,20.31 296.22,21.12 293.85,22.29 290.89,23.64"/>
    </edge>
    <edge id=":577c4_1" function="internal" bidi=":577c4_2">
        <lane id=":577c4_1_0" index="0" allow="rail rail_electric" speed="110.00" length="11.62" shape="301.81,20.00 290.19,20.00"/>
    </edge>
    <edge id=":577c4_2" function="internal" bidi=":577c4_1">
        <lane id=":577c4_2_0" index="0" allow="rail rail_electric" speed="110.00" length="11.62" shape="290.19,20.00 301.81,20.00"/>
    </edge>
    <edge id=":577c4_3" function="internal" bidi=":577c4_0">
        <lane id=":577c4_3_0" index="0" allow="rail rail_electric" speed="110.00" length="11.63" shape="290.89,23.64 293.85,22.29 296.22,21.12 298.65,20.31 301.81,20.00"/>
    </edge>
    <edge id=":61a1600e-997a-4c88-9ec0-89c53d884ef4-km-175-in_0" function="internal" bidi=":61a1600e-997a-4c88-9ec0-89c53d884ef4-km-175-in_1">
        <lane id=":61a1600e-997a-4c88-9ec0-89c53d884ef4-km-175-in_0_0" index="0" allow="rail rail_electric" speed="110.00" length="0.10" shape="275.00,20.00 275.00,20.00"/>
    </edge>
    <edge id=":61a1600e-997a-4c88-9ec0-89c53d884ef4-km-175-in_1" function="internal" bidi=":61a1600e-997a-4c88-9ec0-89c53d884ef4-km-175-in_0">
        <lane id=":61a1600e-997a-4c88-9ec0-89c53d884ef4-km-175-in_1_0" index="0" allow="rail rail_electric" speed="110.00" length="0.10" shape="275.00,20.00 275.00,20.00"/>
    </edge>
    <edge id=":61a1600e-997a-4c88-9ec0-89c53d884ef4-km-25-gegen_0" function="internal" bidi=":61a1600e-997a-4c88-9ec0-89c53d884ef4-km-25-gegen_1">
        <lane id=":61a1600e-997a-4c88-9ec0-89c53d884ef4-km-25-gegen_0_0" index="0" allow="rail rail_electric" speed="110.00" length="0.10" shape="125.00,20.00 125.00,20.00"/>
    </edge>
    <edge id=":61a1600e-997a-4c88-9ec0-89c53d884ef4-km-25-gegen_1" function="internal" bidi=":61a1600e-997a-4c88-9ec0-89c53d884ef4-km-25-gegen_0">
        <lane id=":61a1600e-997a-4c88-9ec0-89c53d884ef4-km-25-gegen_1_0" index="0" allow="rail rail_electric" speed="110.00" length="0.10" shape="125.00,20.00 125.00,20.00"/>
    </edge>
    <edge id=":64f673bc-7d9f-4091-9110-2128e0285d3c-km-25-gegen_0" function="internal" bidi=":64f673bc-7d9f-4091-9110-2128e0285d3c-km-25-gegen_1">
        <lane id=":64f673bc-7d9f-4091-9110-2128e0285d3c-km-25-gegen_0_0" index="0" allow="rail rail_electric" speed="110.00" length="0.10" shape="125.00,10.00 125.00,10.00"/>
    </edge>
    <edge id=":64f673bc-7d9f-4091-9110-2128e0285d3c-km-25-gegen_1" function="internal" bidi=":64f673bc-7d9f-4091-9110-2128e0285d3c-km-25-gegen_0">
        <lane id=":64f673bc-7d9f-4091-9110-2128e0285d3c-km-25-gegen_1_0" index="0" allow="rail rail_electric" speed="110.00" length="0.10" shape="125.00,10.00 125.00,10.00"/>
    </edge>
    <edge id=":6a62b_0" function="internal">
        <lane id=":6a62b_0_0" index="0" allow="rail rail_electric" speed="0.10" length="0.10" shape="350.00,20.00 350.00,20.00"/>
    </edge>
    <edge id=":7448e_0" function="internal" bidi=":7448e_3">
        <lane id=":7448e_0_0" index="0" allow="rail rail_electric" speed="110.00" length="11.63" shape="109.11,23.64 106.15,22.29 103.78,21.12 101.35,20.31 98.19,20.00"/>
    </edge>
    <edge id=":7448e_1" function="internal" bidi=":7448e_2">
        <lane id=":7448e_1_0" index="0" allow="rail rail_electric" speed="110.00" length="11.62" shape="109.81,20.00 98.19,20.00"/>
    </edge>
    <edge id=":7448e_2" function="internal" bidi=":7448e_1">
        <lane id=":7448e_2_0" index="0" allow="rail rail_electric" speed="110.00" length="11.62" shape="98.19,20.00 109.81,20.00"/>
    </edge>
    <edge id=":7448e_3" function="internal" bidi=":7448e_0">
        <lane id=":7448e_3_0" index="0" allow="rail rail_electric" speed="110.00" length="11.63" shape="98.19,20.00 101.35,20.31 103.78,21.12 106.15,22.29 109.11,23.64"/>
    </edge>
    <edge id=":8710dd8c-f9cc-4674-9956-197809e8f9a9-km-175-in_0" function="internal" bidi=":8710dd8c-f9cc-4674-9956-197809e8f9a9-km-175-in_1">
        <lane id=":8710dd8c-f9cc-4674-9956-197809e8f9a9-km-175-in_0_0" index="0" allow="rail rail_electric" speed="110.00" length="0.10" shape="273.07,30.00 273.07,30.00"/>
    </edge>
    <edge id=":8710dd8c-f9cc-4674-9956-197809e8f9a9-km-175-in_1" function="internal" bidi=":8710dd8c-f9cc-4674-9956-197809e8f9a9-km-175-in_0">
        <lane id=":8710dd8c-f9cc-4674-9956-197809e8f9a9-km-175-in_1_0" index="0" allow="rail rail_electric" speed="110.00" length="0.10" shape="273.07,30.00 273.07,30.00"/>
    </edge>
    <edge id=":8710dd8c-f9cc-4674-9956-197809e8f9a9-km-25-gegen_0" function="internal" bidi=":8710dd8c-f9cc-4674-9956-197809e8f9a9-km-25-gegen_1">
        <lane id=":8710dd8c-f9cc-4674-9956-197809e8f9a9-km-25-gegen_0_0" index="0" allow="rail rail_electric" speed="110.00" length="0.10" shape="123.21,29.28 123.21,29.28"/>
    </edge>
    <edge id=":8710dd8c-f9cc-4674-9956-197809e8f9a9-km-25-gegen_1" function="internal" bidi=":8710dd8c-f9cc-4674-9956-197809e8f9a9-km-25-gegen_0">
        <lane id=":8710dd8c-f9cc-4674-9956-197809e8f9a9-km-25-gegen_1_0" index="0" allow="rail rail_electric" speed="110.00" length="0.10" shape="123.21,29.28 123.21,29.28"/>
    </edge>
    <edge id=":93b9b_0" function="internal">
        <lane id=":93b9b_0_0" index="0" allow="rail rail_electric" speed="0.10" length="0.10" shape="0.00,0.00 0.00,0.00"/>
    </edge>
    <edge id=":94a6f92a-0c2a-40dc-87d6-ccd0e55bf53d-km-25-in_0" function="internal" bidi=":94a6f92a-0c2a-40dc-87d6-ccd0e55bf53d-km-25-in_1">
        <lane id=":94a6f92a-0c2a-40dc-87d6-ccd0e55bf53d-km-25-in_0_0" index="0" allow="rail rail_electric" speed="110.00" length="0.10" shape="25.00,10.00 25.00,10.00"/>
    </edge>
    <edge id=":94a6f92a-0c2a-40dc-87d6-ccd0e55bf53d-km-25-in_1" function="internal" bidi=":94a6f92a-0c2a-40dc-87d6-ccd0e55bf53d-km-25-in_0">
        <lane id=":94a6f92a-0c2a-40dc-87d6-ccd0e55bf53d-km-25-in_1_0" index="0" allow="rail rail_electric" speed="110.00" length="0.10" shape="25.00,10.00 25.00,10.00"/>
    </edge>
    <edge id=":a51fad9c-2ac2-4f38-aae2-6eab45ae346e-km-25-gegen_0" function="internal" bidi=":a51fad9c-2ac2-4f38-aae2-6eab45ae346e-km-25-gegen_1">
        <lane id=":a51fad9c-2ac2-4f38-aae2-6eab45ae346e-km-25-gegen_0_0" index="0" allow="rail rail_electric" speed="110.00" length="0.10" shape="76.79,0.72 76.79,0.72"/>
    </edge>
    <edge id=":a51fad9c-2ac2-4f38-aae2-6eab45ae346e-km-25-gegen_1" function="internal" bidi=":a51fad9c-2ac2-4f38-aae2-6eab45ae346e-km-25-gegen_0">
        <lane id=":a51fad9c-2ac2-4f38-aae2-6eab45ae346e-km-25-gegen_1_0" index="0" allow="rail rail_electric" speed="110.00" length="0.10" shape="76.79,0.72 76.79,0.72"/>
    </edge>
    <edge id=":f3a18358-b059-4033-94cc-9c79ffa4f644-km-25-gegen_0" function="internal" bidi=":f3a18358-b059-4033-94cc-9c79ffa4f644-km-25-gegen_1">
        <lane id=":f3a18358-b059-4033-94cc-9c79ffa4f644-km-25-gegen_0_0" index="0" allow="rail rail_electric" speed="110.00" length="0.10" shape="325.00,20.00 325.00,20.00"/>
    </edge>
    <edge id=":f3a18358-b059-4033-94cc-9c79ffa4f644-km-25-gegen_1" function="internal" bidi=":f3a18358-b059-4033-94cc-9c79ffa4f644-km-25-gegen_0">
        <lane id=":f3a18358-b059-4033-94cc-9c79ffa4f644-km-25-gegen_1_0" index="0" allow="rail rail_electric" speed="110.00" length="0.10" shape="325.00,20.00 325.00,20.00"/>
    </edge>
    <edge id=":f7d38_0" function="internal" bidi=":f7d38_3">
        <lane id=":f7d38_0_0" index="0" allow="rail rail_electric" speed="110.00" length="11.63" shape="59.11,13.64 56.15,12.29 53.78,11.12 51.35,10.31 48.19,10.00"/>
    </edge>
    <edge id=":f7d38_1" function="internal" bidi=":f7d38_2">
        <lane id=":f7d38_1_0" index="0" allow="rail rail_electric" speed="110.00" length="11.62" shape="59.81,10.00 48.19,10.00"/>
    </edge>
    <edge id=":f7d38_2" function="internal" bidi=":f7d38_1">
        <lane id=":f7d38_2_0" index="0" allow="rail rail_electric" speed="110.00" length="11.62" shape="48.19,10.00 59.81,10.00"/>
    </edge>
    <edge id=":f7d38_3" function="internal" bidi=":f7d38_0">
        <lane id=":f7d38_3_0" index="0" allow="rail rail_electric" speed="110.00" length="11.63" shape="48.19,10.00 51.35,10.31 53.78,11.12 56.15,12.29 59.11,13.64"/>
    </edge>
    <edge id=":fb07c_0" function="internal">
        <lane id=":fb07c_0_0" index="0" allow="rail rail_electric" speed="0.10" length="0.10" shape="250.00,10.00 250.00,10.00"/>
    </edge>
    <edge id=":fcb82_0" function="internal">
        <lane id=":fcb82_0_0" index="0" allow="rail rail_electric" speed="0.10" length="0.10" shape="0.00,10.00 0.00,10.00"/>
    </edge>

    <edge id="327be-0" from="f7d38" to="52ced" priority="-1" spreadType="center" shape="50.00,10.00 75.00,10.00 100.00,10.00" bidi="327be-0-re">
        <lane id="327be-0_0" index="0" allow="rail rail_electric" speed="110.00" length="30.38" shape="59.81,10.00 75.00,10.00 90.19,10.00"/>
    </edge>
    <edge id="327be-0-re" from="52ced" to="f7d38" priority="-1" spreadType="center" shape="100.00,10.00 75.00,10.00 50.00,10.00" bidi="327be-0">
        <lane id="327be-0-re_0" index="0" allow="rail rail_electric" speed="110.00" length="30.38" shape="90.19,10.00 75.00,10.00 59.81,10.00"/>
    </edge>
    <edge id="4f644-0" from="577c4" to="f3a18358-b059-4033-94cc-9c79ffa4f644-km-25-gegen" priority="-1" spreadType="center" bidi="4f644-0-re">
        <lane id="4f644-0_0" index="0" allow="rail rail_electric" speed="110.00" length="23.19" shape="301.81,20.00 325.00,20.00"/>
    </edge>
    <edge id="4f644-0-re" from="f3a18358-b059-4033-94cc-9c79ffa4f644-km-25-gegen" to="577c4" priority="-1" spreadType="center" bidi="4f644-0">
        <lane id="4f644-0-re_0" index="0" allow="rail rail_electric" speed="110.00" length="23.19" shape="325.00,20.00 301.81,20.00"/>
    </edge>
    <edge id="4f644-1" from="f3a18358-b059-4033-94cc-9c79ffa4f644-km-25-gegen" to="6a62b" priority="-1" spreadType="center" bidi="4f644-1-re">
        <lane id="4f644-1_0" index="0" allow="rail rail_electric" speed="110.00" length="25.00" shape="325.00,20.00 350.00,20.00"/>
    </edge>
    <edge id="4f644-1-re" from="6a62b" to="f3a18358-b059-4033-94cc-9c79ffa4f644-km-25-gegen" priority="-1" spreadType="center" bidi="4f644-1">
        <lane id="4f644-1-re_0" index="0" allow="rail rail_electric" speed="110.00" length="25.00" shape="350.00,20.00 325.00,20.00"/>
    </edge>
    <edge id="84ef4-0" from="7448e" to="61a1600e-997a-4c88-9ec0-89c53d884ef4-km-25-gegen" priority="-1" spreadType="center" bidi="84ef4-0-re">
        <lane id="84ef4-0_0" index="0" allow="rail rail_electric" speed="110.00" length="15.19" shape="109.81,20.00 125.00,20.00"/>
    </edge>
    <edge id="84ef4-0-re" from="61a1600e-997a-4c88-9ec0-89c53d884ef4-km-25-gegen" to="7448e" priority="-1" spreadType="center" bidi="84ef4-0">
        <lane id="84ef4-0-re_0" index="0" allow="rail rail_electric" speed="110.00" length="15.19" shape="125.00,20.00 109.81,20.00"/>
    </edge>
    <edge id="84ef4-1" from="61a1600e-997a-4c88-9ec0-89c53d884ef4-km-25-gegen" to="61a1600e-997a-4c88-9ec0-89c53d884ef4-km-175-in" priority="-1" spreadType="center" shape="125.00,20.00 250.00,20.00 275.00,20.00" bidi="84ef4-1-re">
        <lane id="84ef4-1_0" index="0" allow="rail rail_electric" speed="110.00" length="150.00" shape="125.00,20.00 250.00,20.00 275.00,20.00"/>
    </edge>
    <edge id="84ef4-1-re" from="61a1600e-997a-4c88-9ec0-89c53d884ef4-km-175-in" to="61a1600e-997a-4c88-9ec0-89c53d884ef4-km-25-gegen" priority="-1" spreadType="center" shape="275.00,20.00 250.00,20.00 125.00,20.00" bidi="84ef4-1">
        <lane id="84ef4-1-re_0" index="0" allow="rail rail_electric" speed="110.00" length="150.00" shape="275.00,20.00 250.00,20.00 125.00,20.00"/>
    </edge>
    <edge id="84ef4-2" from="61a1600e-997a-4c88-9ec0-89c53d884ef4-km-175-in" to="577c4" priority="-1" spreadType="center" bidi="84ef4-2-re">
        <lane id="84ef4-2_0" index="0" allow="rail rail_electric" speed="110.00" length="15.19" shape="275.00,20.00 290.19,20.00"/>
    </edge>
    <edge id="84ef4-2-re" from="577c4" to="61a1600e-997a-4c88-9ec0-89c53d884ef4-km-175-in" priority="-1" spreadType="center" bidi="84ef4-2">
        <lane id="84ef4-2-re_0" index="0" allow="rail rail_electric" speed="110.00" length="15.19" shape="290.19,20.00 275.00,20.00"/>
    </edge>
    <edge id="85d3c-0" from="52ced" to="64f673bc-7d9f-4091-9110-2128e0285d3c-km-25-gegen" priority="-1" spreadType="center" bidi="85d3c-0-re">
        <lane id="85d3c-0_0" index="0" allow="rail rail_electric" speed="110.00" length="23.19" shape="101.81,10.00 125.00,10.00"/>
    </edge>
    <edge id="85d3c-0-re" from="64f673bc-7d9f-4091-9110-2128e0285d3c-km-25-gegen" to="52ced" priority="-1" spreadType="center" bidi="85d3c-0">
        <lane id="85d3c-0-re_0" index="0" allow="rail rail_electric" speed="110.00" length="23.19" shape="125.00,10.00 101.81,10.00"/>
    </edge>
    <edge id="85d3c-1" from="64f673bc-7d9f-4091-9110-2128e0285d3c-km-25-gegen" to="fb07c" priority="-1" spreadType="center" bidi="85d3c-1-re">
        <lane id="85d3c-1_0" index="0" allow="rail rail_electric" speed="110.00" length="125.00" shape="125.00,10.00 250.00,10.00"/>
    </edge>
    <edge id="85d3c-1-re" from="fb07c" to="64f673bc-7d9f-4091-9110-2128e0285d3c-km-25-gegen" priority="-1" spreadType="center" bidi="85d3c-1">
        <lane id="85d3c-1-re_0" index="0" allow="rail rail_electric" speed="110.00" length="125.00" shape="250.00,10.00 125.00,10.00"/>
    </edge>
    <edge id="8f9a9-0" from="7448e" to="8710dd8c-f9cc-4674-9956-197809e8f9a9-km-25-gegen" priority="-1" spreadType="center" bidi="8f9a9-0-re">
        <lane id="8f9a9-0_0" index="0" allow="rail rail_electric" speed="110.00" length="15.19" shape="109.11,23.64 123.21,29.28"/>
    </edge>
    <edge id="8f9a9-0-re" from="8710dd8c-f9cc-4674-9956-197809e8f9a9-km-25-gegen" to="7448e" priority="-1" spreadType="center" bidi="8f9a9-0">
        <lane id="8f9a9-0-re_0" index="0" allow="rail rail_electric" speed="110.00" length="15.19" shape="123.21,29.28 109.11,23.64"/>
    </edge>
    <edge id="8f9a9-1" from="8710dd8c-f9cc-4674-9956-197809e8f9a9-km-25-gegen" to="8710dd8c-f9cc-4674-9956-197809e8f9a9-km-175-in" priority="-1" spreadType="center" shape="123.21,29.28 125.00,30.00 250.00,30.00 273.07,30.00" bidi="8f9a9-1-re">
        <lane id="8f9a9-1_0" index="0" allow="rail rail_electric" speed="110.00" length="150.00" shape="123.21,29.28 125.00,30.00 250.00,30.00 273.07,30.00"/>
    </edge>
    <edge id="8f9a9-1-re" from="8710dd8c-f9cc-4674-9956-197809e8f9a9-km-175-in" to="8710dd8c-f9cc-4674-9956-197809e8f9a9-km-25-gegen" priority="-1" spreadType="center" shape="273.07,30.00 250.00,30.00 125.00,30.00 123.21,29.28" bidi="8f9a9-1">
        <lane id="8f9a9-1-re_0" index="0" allow="rail rail_electric" speed="110.00" length="150.00" shape="273.07,30.00 250.00,30.00 125.00,30.00 123.21,29.28"/>
    </edge>
    <edge id="8f9a9-2" from="8710dd8c-f9cc-4674-9956-197809e8f9a9-km-175-in" to="577c4" priority="-1" spreadType="center" shape="273.07,30.00 275.00,30.00 300.00,20.00" bidi="8f9a9-2-re">
        <lane id="8f9a9-2_0" index="0" allow="rail rail_electric" speed="110.00" length="19.04" shape="273.07,30.00 275.00,30.00 290.89,23.64"/>
    </edge>
    <edge id="8f9a9-2-re" from="577c4" to="8710dd8c-f9cc-4674-9956-197809e8f9a9-km-175-in" priority="-1" spreadType="center" shape="300.00,20.00 275.00,30.00 273.07,30.00" bidi="8f9a9-2">
        <lane id="8f9a9-2-re_0" index="0" allow="rail rail_electric" speed="110.00" length="19.04" shape="290.89,23.64 275.00,30.00 273.07,30.00"/>
    </edge>
    <edge id="9a917-0" from="f7d38" to="7448e" priority="-1" spreadType="center" shape="50.00,10.00 75.00,20.00 100.00,20.00" bidi="9a917-0-re">
        <lane id="9a917-0_0" index="0" allow="rail rail_electric" speed="110.00" length="40.31" shape="59.11,13.64 75.00,20.00 98.19,20.00"/>
    </edge>
    <edge id="9a917-0-re" from="7448e" to="f7d38" priority="-1" spreadType="center" shape="100.00,20.00 75.00,20.00 50.00,10.00" bidi="9a917-0">
        <lane id="9a917-0-re_0" index="0" allow="rail rail_electric" speed="110.00" length="40.31" shape="98.19,20.00 75.00,20.00 59.11,13.64"/>
    </edge>
    <edge id="bf53d-0" from="fcb82" to="94a6f92a-0c2a-40dc-87d6-ccd0e55bf53d-km-25-in" priority="-1" spreadType="center" bidi="bf53d-0-re">
        <lane id="bf53d-0_0" index="0" allow="rail rail_electric" speed="110.00" length="25.00" shape="0.00,10.00 25.00,10.00"/>
    </edge>
    <edge id="bf53d-0-re" from="94a6f92a-0c2a-40dc-87d6-ccd0e55bf53d-km-25-in" to="fcb82" priority="-1" spreadType="center" bidi="bf53d-0">
        <lane id="bf53d-0-re_0" index="0" allow="rail rail_electric" speed="110.00" length="25.00" shape="25.00,10.00 0.00,10.00"/>
    </edge>
    <edge id="bf53d-1" from="94a6f92a-0c2a-40dc-87d6-ccd0e55bf53d-km-25-in" to="f7d38" priority="-1" spreadType="center" bidi="bf53d-1-re">
        <lane id="bf53d-1_0" index="0" allow="rail rail_electric" speed="110.00" length="23.19" shape="25.00,10.00 48.19,10.00"/>
    </edge>
    <edge id="bf53d-1-re" from="f7d38" to="94a6f92a-0c2a-40dc-87d6-ccd0e55bf53d-km-25-in" priority="-1" spreadType="center" bidi="bf53d-1">
        <lane id="bf53d-1-re_0" index="0" allow="rail rail_electric" speed="110.00" length="23.19" shape="48.19,10.00 25.00,10.00"/>
    </edge>
    <edge id="e346e-0" from="52ced" to="a51fad9c-2ac2-4f38-aae2-6eab45ae346e-km-25-gegen" priority="-1" spreadType="center" bidi="e346e-0-re">
        <lane id="e346e-0_0" index="0" allow="rail rail_electric" speed="110.00" length="15.19" shape="90.89,6.36 76.79,0.72"/>
    </edge>
    <edge id="e346e-0-re" from="a51fad9c-2ac2-4f38-aae2-6eab45ae346e-km-25-gegen" to="52ced" priority="-1" spreadType="center" bidi="e346e-0">
        <lane id="e346e-0-re_0" index="0" allow="rail rail_electric" speed="110.00" length="15.19" shape="76.79,0.72 90.89,6.36"/>
    </edge>
    <edge id="e346e-1" from="a51fad9c-2ac2-4f38-aae2-6eab45ae346e-km-25-gegen" to="93b9b" priority="-1" spreadType="center" shape="76.79,0.72 75.00,0.00 0.00,0.00" bidi="e346e-1-re">
        <lane id="e346e-1_0" index="0" allow="rail rail_electric" speed="110.00" length="76.93" shape="76.79,0.72 75.00,0.00 0.00,0.00"/>
    </edge>
    <edge id="e346e-1-re" from="93b9b" to="a51fad9c-2ac2-4f38-aae2-6eab45ae346e-km-25-gegen" priority="-1" spreadType="center" shape="0.00,0.00 75.00,0.00 76.79,0.72" bidi="e346e-1">
        <lane id="e346e-1-re_0" index="0" allow="rail rail_electric" speed="110.00" length="76.93" shape="0.00,0.00 75.00,0.00 76.79,0.72"/>
    </edge>

    <junction id="52ced" type="priority" x="100.00" y="10.00" incLanes="85d3c-0-re_0 e346e-0-re_0 327be-0_0" intLanes=":52ced_0_0 :52ced_1_0 :52ced_2_0 :52ced_3_0" shape="101.81,11.60 101.81,8.40 99.50,8.28 97.83,7.94 96.50,7.40 95.20,6.69 93.63,5.84 91.49,4.87 90.30,7.84 90.19,8.40 90.19,11.60">
        <request index="0" response="0000" foes="0000" cont="0"/>
        <request index="1" response="1000" foes="1000" cont="0"/>
        <request index="2" response="1000" foes="1000" cont="0"/>
        <request index="3" response="0000" foes="0110" cont="0"/>
    </junction>
    <junction id="577c4" type="priority" x="300.00" y="20.00" incLanes="4f644-0-re_0 84ef4-2_0 8f9a9-2_0" intLanes=":577c4_0_0 :577c4_1_0 :577c4_2_0 :577c4_3_0" shape="301.81,21.60 301.81,18.40 290.19,18.40 290.19,21.60 290.30,22.16 291.49,25.13 293.63,24.16 295.20,23.31 296.50,22.60 297.83,22.06 299.50,21.72">
        <request index="0" response="0000" foes="0000" cont="0"/>
        <request index="1" response="0000" foes="1000" cont="0"/>
        <request index="2" response="0000" foes="1000" cont="0"/>
        <request index="3" response="0110" foes="0110" cont="0"/>
    </junction>
    <junction id="61a1600e-997a-4c88-9ec0-89c53d884ef4-km-175-in" type="rail_signal" x="275.00" y="20.00" incLanes="84ef4-2-re_0 84ef4-1_0" intLanes=":61a1600e-997a-4c88-9ec0-89c53d884ef4-km-175-in_0_0 :61a1600e-997a-4c88-9ec0-89c53d884ef4-km-175-in_1_0" shape="275.00,21.60 275.00,18.40 275.00,21.60">
        <request index="0" response="00" foes="00" cont="0"/>
        <request index="1" response="00" foes="00" cont="0"/>
    </junction>
    <junction id="61a1600e-997a-4c88-9ec0-89c53d884ef4-km-25-gegen" type="rail_signal" x="125.00" y="20.00" incLanes="84ef4-1-re_0 84ef4-0_0" intLanes=":61a1600e-997a-4c88-9ec0-89c53d884ef4-km-25-gegen_0_0 :61a1600e-997a-4c88-9ec0-89c53d884ef4-km-25-gegen_1_0" shape="125.00,21.60 125.00,18.40 125.00,21.60">
        <request index="0" response="00" foes="00" cont="0"/>
        <request index="1" response="00" foes="00" cont="0"/>
    </junction>
    <junction id="64f673bc-7d9f-4091-9110-2128e0285d3c-km-25-gegen" type="rail_signal" x="125.00" y="10.00" incLanes="85d3c-1-re_0 85d3c-0_0" intLanes=":64f673bc-7d9f-4091-9110-2128e0285d3c-km-25-gegen_0_0 :64f673bc-7d9f-4091-9110-2128e0285d3c-km-25-gegen_1_0" shape="125.00,11.60 125.00,8.40 125.00,11.60">
        <request index="0" response="00" foes="00" cont="0"/>
        <request index="1" response="00" foes="00" cont="0"/>
    </junction>
    <junction id="6a62b" type="priority" x="350.00" y="20.00" incLanes="4f644-1_0" intLanes=":6a62b_0_0" shape="350.00,18.40 350.00,21.60 350.00,18.40 350.00,21.60">
        <request index="0" response="0" foes="0" cont="0"/>
    </junction>
    <junction id="7448e" type="priority" x="100.00" y="20.00" incLanes="8f9a9-0-re_0 84ef4-0-re_0 9a917-0_0" intLanes=":7448e_0_0 :7448e_1_0 :7448e_2_0 :7448e_3_0" shape="108.51,25.13 109.70,22.16 109.81,21.60 109.81,18.40 98.19,18.40 98.19,21.60 100.50,21.72 102.17,22.06 103.50,22.60 104.80,23.31 106.37,24.16">
        <request index="0" response="0010" foes="0010" cont="0"/>
        <request index="1" response="0000" foes="1001" cont="0"/>
        <request index="2" response="0000" foes="0000" cont="0"/>
        <request index="3" response="0010" foes="0010" cont="0"/>
    </junction>
    <junction id="8710dd8c-f9cc-4674-9956-197809e8f9a9-km-175-in" type="rail_signal" x="273.07" y="30.00" incLanes="8f9a9-2-re_0 8f9a9-1_0" intLanes=":8710dd8c-f9cc-4674-9956-197809e8f9a9-km-175-in_0_0 :8710dd8c-f9cc-4674-9956-197809e8f9a9-km-175-in_1_0" shape="273.07,31.60 273.07,28.40 273.07,31.60">
        <request index="0" response="00" foes="00" cont="0"/>
        <request index="1" response="00" foes="00" cont="0"/>
    </junction>
    <junction id="8710dd8c-f9cc-4674-9956-197809e8f9a9-km-25-gegen" type="rail_signal" x="123.21" y="29.28" incLanes="8f9a9-1-re_0 8f9a9-0_0" intLanes=":8710dd8c-f9cc-4674-9956-197809e8f9a9-km-25-gegen_0_0 :8710dd8c-f9cc-4674-9956-197809e8f9a9-km-25-gegen_1_0" shape="122.62,30.77 123.81,27.80 122.62,30.77">
        <request index="0" response="00" foes="00" cont="0"/>
        <request index="1" response="00" foes="00" cont="0"/>
    </junction>
    <junction id="93b9b" type="priority" x="0.00" y="0.00" incLanes="e346e-1_0" intLanes=":93b9b_0_0" shape="0.00,1.60 0.00,-1.60 0.00,1.60 0.00,-1.60">
        <request index="0" response="0" foes="0" cont="0"/>
    </junction>
    <junction id="94a6f92a-0c2a-40dc-87d6-ccd0e55bf53d-km-25-in" type="rail_signal" x="25.00" y="10.00" incLanes="bf53d-1-re_0 bf53d-0_0" intLanes=":94a6f92a-0c2a-40dc-87d6-ccd0e55bf53d-km-25-in_0_0 :94a6f92a-0c2a-40dc-87d6-ccd0e55bf53d-km-25-in_1_0" shape="25.00,11.60 25.00,8.40 25.00,11.60">
        <request index="0" response="00" foes="00" cont="0"/>
        <request index="1" response="00" foes="00" cont="0"/>
    </junction>
    <junction id="a51fad9c-2ac2-4f38-aae2-6eab45ae346e-km-25-gegen" type="rail_signal" x="76.79" y="0.72" incLanes="e346e-0_0 e346e-1-re_0" intLanes=":a51fad9c-2ac2-4f38-aae2-6eab45ae346e-km-25-gegen_0_0 :a51fad9c-2ac2-4f38-aae2-6eab45ae346e-km-25-gegen_1_0" shape="76.19,2.20 77.38,-0.77 76.19,2.20">
        <request index="0" response="00" foes="00" cont="0"/>
        <request index="1" response="00" foes="00" cont="0"/>
    </junction>
    <junction id="f3a18358-b059-4033-94cc-9c79ffa4f644-km-25-gegen" type="rail_signal" x="325.00" y="20.00" incLanes="4f644-1-re_0 4f644-0_0" intLanes=":f3a18358-b059-4033-94cc-9c79ffa4f644-km-25-gegen_0_0 :f3a18358-b059-4033-94cc-9c79ffa4f644-km-25-gegen_1_0" shape="325.00,21.60 325.00,18.40 325.00,21.60">
        <request index="0" response="00" foes="00" cont="0"/>
        <request index="1" response="00" foes="00" cont="0"/>
    </junction>
    <junction id="f7d38" type="priority" x="50.00" y="10.00" incLanes="9a917-0-re_0 327be-0-re_0 bf53d-1_0" intLanes=":f7d38_0_0 :f7d38_1_0 :f7d38_2_0 :f7d38_3_0" shape="58.51,15.13 59.70,12.16 59.81,11.60 59.81,8.40 48.19,8.40 48.19,11.60 50.50,11.72 52.17,12.06 53.50,12.60 54.80,13.31 56.37,14.16">
        <request index="0" response="0010" foes="0010" cont="0"/>
        <request index="1" response="0000" foes="1001" cont="0"/>
        <request index="2" response="0000" foes="0000" cont="0"/>
        <request index="3" response="0010" foes="0010" cont="0"/>
    </junction>
    <junction id="fb07c" type="priority" x="250.00" y="10.00" incLanes="85d3c-1_0" intLanes=":fb07c_0_0" shape="250.00,8.40 250.00,11.60 250.00,8.40 250.00,11.60">
        <request index="0" response="0" foes="0" cont="0"/>
    </junction>
    <junction id="fcb82" type="priority" x="0.00" y="10.00" incLanes="bf53d-0-re_0" intLanes=":fcb82_0_0" shape="0.00,11.60 0.00,8.40 0.00,11.60 0.00,8.40">
        <request index="0" response="0" foes="0" cont="0"/>
    </junction>

    <connection from="327be-0" to="85d3c-0" fromLane="0" toLane="0" via=":52ced_3_0" dir="s" state="M"/>
    <connection from="327be-0-re" to="bf53d-1-re" fromLane="0" toLane="0" via=":f7d38_1_0" dir="s" state="M"/>
    <connection from="4f644-0" to="4f644-1" fromLane="0" toLane="0" via=":f3a18358-b059-4033-94cc-9c79ffa4f644-km-25-gegen_1_0" tl="f3a18358-b059-4033-94cc-9c79ffa4f644-km-25-gegen" linkIndex="1" dir="s" state="O"/>
    <connection from="4f644-0-re" to="8f9a9-2-re" fromLane="0" toLane="0" via=":577c4_0_0" dir="R" state="M"/>
    <connection from="4f644-0-re" to="84ef4-2-re" fromLane="0" toLane="0" via=":577c4_1_0" dir="s" state="M"/>
    <connection from="4f644-1" to="4f644-1-re" fromLane="0" toLane="0" speed="0.10" via=":6a62b_0_0" dir="t" state="M"/>
    <connection from="4f644-1-re" to="4f644-0-re" fromLane="0" toLane="0" via=":f3a18358-b059-4033-94cc-9c79ffa4f644-km-25-gegen_0_0" tl="f3a18358-b059-4033-94cc-9c79ffa4f644-km-25-gegen" linkIndex="0" dir="s" state="O"/>
    <connection from="84ef4-0" to="84ef4-1" fromLane="0" toLane="0" via=":61a1600e-997a-4c88-9ec0-89c53d884ef4-km-25-gegen_1_0" tl="61a1600e-997a-4c88-9ec0-89c53d884ef4-km-25-gegen" linkIndex="1" dir="s" state="O"/>
    <connection from="84ef4-0-re" to="9a917-0-re" fromLane="0" toLane="0" via=":7448e_1_0" dir="s" state="M"/>
    <connection from="84ef4-1" to="84ef4-2" fromLane="0" toLane="0" via=":61a1600e-997a-4c88-9ec0-89c53d884ef4-km-175-in_1_0" tl="61a1600e-997a-4c88-9ec0-89c53d884ef4-km-175-in" linkIndex="1" dir="s" state="O"/>
    <connection from="84ef4-1-re" to="84ef4-0-re" fromLane="0" toLane="0" via=":61a1600e-997a-4c88-9ec0-89c53d884ef4-km-25-gegen_0_0" tl="61a1600e-997a-4c88-9ec0-89c53d884ef4-km-25-gegen" linkIndex="0" dir="s" state="O"/>
    <connection from="84ef4-2" to="4f644-0" fromLane="0" toLane="0" via=":577c4_2_0" dir="s" state="M"/>
    <connection from="84ef4-2-re" to="84ef4-1-re" fromLane="0" toLane="0" via=":61a1600e-997a-4c88-9ec0-89c53d884ef4-km-175-in_0_0" tl="61a1600e-997a-4c88-9ec0-89c53d884ef4-km-175-in" linkIndex="0" dir="s" state="O"/>
    <connection from="85d3c-0" to="85d3c-1" fromLane="0" toLane="0" via=":64f673bc-7d9f-4091-9110-2128e0285d3c-km-25-gegen_1_0" tl="64f673bc-7d9f-4091-9110-2128e0285d3c-km-25-gegen" linkIndex="1" dir="s" state="O"/>