<?xml version="1.0" encoding="UTF-8"?>

<!-- generated on 2023-05-25 11:44:42 by Eclipse SUMO netconvert Version 1.12.0
<configuration xmlns:xsi="http://www.w3.org/2001/XMLSchema-instance" xsi:noNamespaceSchemaLocation="http://sumo.dlr.de/xsd/netconvertConfiguration.xsd">

    <input>
        <node-files value="sumo-config/example.nod.xml"/>
        <edge-files value="sumo-config/example.edg.xml"/>
        <connection-files value="sumo-config/example.con.xml"/>
    </input>

    <output>
        <output-file value="sumo-config/example.net.xml"/>
    </output>

    <railway>
        <railway.topology.repair value="true"/>
        <railway.topology.repair.connect-straight value="true"/>
        <railway.topology.repair.stop-turn value="true"/>
        <railway.topology.all-bidi value="false"/>
    </railway>

    <report>
        <aggregate-warnings value="5"/>
    </report>

</configuration>
-->

<net version="1.9" junctionCornerDetail="5" limitTurnSpeed="5.50" xmlns:xsi="http://www.w3.org/2001/XMLSchema-instance" xsi:noNamespaceSchemaLocation="http://sumo.dlr.de/xsd/net_file.xsd">

    <location netOffset="4533770.00,5625780.00" convBoundary="0.00,0.00,350.00,30.00" origBoundary="-4533770.00,-5625780.00,-4533420.00,-5625750.00" projParameter="!"/>

    <edge id=":05727_0" function="internal">
        <lane id=":05727_0_0" index="0" allow="rail rail_electric" speed="0.10" length="0.10" shape="250.00,10.00 250.00,10.00"/>
    </edge>
    <edge id=":127af_0" function="internal">
        <lane id=":127af_0_0" index="0" allow="rail rail_electric" speed="0.10" length="0.10" shape="0.00,10.00 0.00,10.00"/>
    </edge>
    <edge id=":15bae_0" function="internal" bidi=":15bae_1">
        <lane id=":15bae_0_0" index="0" allow="rail rail_electric" speed="5.59" length="10.50" shape="109.11,23.64 105.74,22.05 104.73,20.91 106.09,20.23 109.81,20.00"/>
    </edge>
    <edge id=":15bae_1" function="internal" bidi=":15bae_0">
        <lane id=":15bae_1_0" index="0" allow="rail rail_electric" speed="5.59" length="10.50" shape="109.81,20.00 106.09,20.23 104.73,20.91 105.74,22.05 109.11,23.64"/>
    </edge>
    <edge id=":15bae_2" function="internal" bidi=":15bae_3">
        <lane id=":15bae_2_0" index="0" allow="rail rail_electric" speed="110.00" length="11.62" shape="109.81,20.00 98.19,20.00"/>
    </edge>
    <edge id=":15bae_3" function="internal" bidi=":15bae_2">
        <lane id=":15bae_3_0" index="0" allow="rail rail_electric" speed="110.00" length="11.62" shape="98.19,20.00 109.81,20.00"/>
    </edge>
    <edge id=":39034_0" function="internal" bidi=":39034_1">
        <lane id=":39034_0_0" index="0" allow="rail rail_electric" speed="5.59" length="10.50" shape="59.11,13.64 55.74,12.05 54.73,10.91 56.09,10.23 59.81,10.00"/>
    </edge>
    <edge id=":39034_1" function="internal" bidi=":39034_0">
        <lane id=":39034_1_0" index="0" allow="rail rail_electric" speed="5.59" length="10.50" shape="59.81,10.00 56.09,10.23 54.73,10.91 55.74,12.05 59.11,13.64"/>
    </edge>
    <edge id=":39034_2" function="internal" bidi=":39034_3">
        <lane id=":39034_2_0" index="0" allow="rail rail_electric" speed="110.00" length="11.62" shape="59.81,10.00 48.19,10.00"/>
    </edge>
    <edge id=":39034_3" function="internal" bidi=":39034_2">
        <lane id=":39034_3_0" index="0" allow="rail rail_electric" speed="110.00" length="11.62" shape="48.19,10.00 59.81,10.00"/>
    </edge>
    <edge id=":46c80_0" function="internal" bidi=":46c80_1">
        <lane id=":46c80_0_0" index="0" allow="rail rail_electric" speed="110.00" length="11.62" shape="301.81,20.00 290.19,20.00"/>
    </edge>
    <edge id=":46c80_1" function="internal" bidi=":46c80_0">
        <lane id=":46c80_1_0" index="0" allow="rail rail_electric" speed="110.00" length="11.62" shape="290.19,20.00 301.81,20.00"/>
    </edge>
    <edge id=":46c80_2" function="internal" bidi=":46c80_3">
        <lane id=":46c80_2_0" index="0" allow="rail rail_electric" speed="5.59" length="10.50" shape="290.19,20.00 293.91,20.23 295.27,20.91 294.26,22.05 290.89,23.64"/>
    </edge>
    <edge id=":46c80_3" function="internal" bidi=":46c80_2">
        <lane id=":46c80_3_0" index="0" allow="rail rail_electric" speed="5.59" length="10.50" shape="290.89,23.64 294.26,22.05 295.27,20.91 293.91,20.23 290.19,20.00"/>
    </edge>
    <edge id=":61101_0" function="internal">
        <lane id=":61101_0_0" index="0" allow="rail rail_electric" speed="0.10" length="0.10" shape="0.00,0.00 0.00,0.00"/>
    </edge>
    <edge id=":6fe59d52-0da4-46fd-8deb-9e106dd0bf49-km-25-gegen_0" function="internal" bidi=":6fe59d52-0da4-46fd-8deb-9e106dd0bf49-km-25-gegen_1">
        <lane id=":6fe59d52-0da4-46fd-8deb-9e106dd0bf49-km-25-gegen_0_0" index="0" allow="rail rail_electric" speed="110.00" length="0.10" shape="325.00,20.00 325.00,20.00"/>
    </edge>
    <edge id=":6fe59d52-0da4-46fd-8deb-9e106dd0bf49-km-25-gegen_1" function="internal" bidi=":6fe59d52-0da4-46fd-8deb-9e106dd0bf49-km-25-gegen_0">
        <lane id=":6fe59d52-0da4-46fd-8deb-9e106dd0bf49-km-25-gegen_1_0" index="0" allow="rail rail_electric" speed="110.00" length="0.10" shape="325.00,20.00 325.00,20.00"/>
    </edge>
    <edge id=":74b5a339-3eb5-4853-9534-7a9cf7d58ab8-km-175-in_0" function="internal" bidi=":74b5a339-3eb5-4853-9534-7a9cf7d58ab8-km-175-in_1">
        <lane id=":74b5a339-3eb5-4853-9534-7a9cf7d58ab8-km-175-in_0_0" index="0" allow="rail rail_electric" speed="110.00" length="0.10" shape="275.00,20.00 275.00,20.00"/>
    </edge>
    <edge id=":74b5a339-3eb5-4853-9534-7a9cf7d58ab8-km-175-in_1" function="internal" bidi=":74b5a339-3eb5-4853-9534-7a9cf7d58ab8-km-175-in_0">
        <lane id=":74b5a339-3eb5-4853-9534-7a9cf7d58ab8-km-175-in_1_0" index="0" allow="rail rail_electric" speed="110.00" length="0.10" shape="275.00,20.00 275.00,20.00"/>
    </edge>
    <edge id=":74b5a339-3eb5-4853-9534-7a9cf7d58ab8-km-25-gegen_0" function="internal" bidi=":74b5a339-3eb5-4853-9534-7a9cf7d58ab8-km-25-gegen_1">
        <lane id=":74b5a339-3eb5-4853-9534-7a9cf7d58ab8-km-25-gegen_0_0" index="0" allow="rail rail_electric" speed="110.00" length="0.10" shape="125.00,20.00 125.00,20.00"/>
    </edge>
    <edge id=":74b5a339-3eb5-4853-9534-7a9cf7d58ab8-km-25-gegen_1" function="internal" bidi=":74b5a339-3eb5-4853-9534-7a9cf7d58ab8-km-25-gegen_0">
        <lane id=":74b5a339-3eb5-4853-9534-7a9cf7d58ab8-km-25-gegen_1_0" index="0" allow="rail rail_electric" speed="110.00" length="0.10" shape="125.00,20.00 125.00,20.00"/>
    </edge>
    <edge id=":91294974-73db-49b6-80fc-5b77ac32b879-km-175-in_0" function="internal" bidi=":91294974-73db-49b6-80fc-5b77ac32b879-km-175-in_1">
        <lane id=":91294974-73db-49b6-80fc-5b77ac32b879-km-175-in_0_0" index="0" allow="rail rail_electric" speed="110.00" length="0.10" shape="273.07,30.00 273.07,30.00"/>
    </edge>
    <edge id=":91294974-73db-49b6-80fc-5b77ac32b879-km-175-in_1" function="internal" bidi=":91294974-73db-49b6-80fc-5b77ac32b879-km-175-in_0">
        <lane id=":91294974-73db-49b6-80fc-5b77ac32b879-km-175-in_1_0" index="0" allow="rail rail_electric" speed="110.00" length="0.10" shape="273.07,30.00 273.07,30.00"/>
    </edge>
    <edge id=":91294974-73db-49b6-80fc-5b77ac32b879-km-25-gegen_0" function="internal" bidi=":91294974-73db-49b6-80fc-5b77ac32b879-km-25-gegen_1">
        <lane id=":91294974-73db-49b6-80fc-5b77ac32b879-km-25-gegen_0_0" index="0" allow="rail rail_electric" speed="110.00" length="0.10" shape="123.21,29.28 123.21,29.28"/>
    </edge>
    <edge id=":91294974-73db-49b6-80fc-5b77ac32b879-km-25-gegen_1" function="internal" bidi=":91294974-73db-49b6-80fc-5b77ac32b879-km-25-gegen_0">
        <lane id=":91294974-73db-49b6-80fc-5b77ac32b879-km-25-gegen_1_0" index="0" allow="rail rail_electric" speed="110.00" length="0.10" shape="123.21,29.28 123.21,29.28"/>
    </edge>
    <edge id=":cbe88_0" function="internal" bidi=":cbe88_3">
        <lane id=":cbe88_0_0" index="0" allow="rail rail_electric" speed="110.00" length="11.62" shape="101.81,10.00 90.19,10.00"/>
    </edge>
    <edge id=":cbe88_1" function="internal" bidi=":cbe88_2">
        <lane id=":cbe88_1_0" index="0" allow="rail rail_electric" speed="5.59" length="10.50" shape="90.89,6.36 94.26,7.95 95.27,9.09 93.91,9.77 90.19,10.00"/>
    </edge>
    <edge id=":cbe88_2" function="internal" bidi=":cbe88_1">
        <lane id=":cbe88_2_0" index="0" allow="rail rail_electric" speed="5.59" length="10.50" shape="90.19,10.00 93.91,9.77 95.27,9.09 94.26,7.95 90.89,6.36"/>
    </edge>
    <edge id=":cbe88_3" function="internal" bidi=":cbe88_0">
        <lane id=":cbe88_3_0" index="0" allow="rail rail_electric" speed="110.00" length="11.62" shape="90.19,10.00 101.81,10.00"/>
    </edge>
    <edge id=":cc797e7a-d36a-4b22-b7c9-510678ea57e4-km-25-in_0" function="internal" bidi=":cc797e7a-d36a-4b22-b7c9-510678ea57e4-km-25-in_1">
        <lane id=":cc797e7a-d36a-4b22-b7c9-510678ea57e4-km-25-in_0_0" index="0" allow="rail rail_electric" speed="110.00" length="0.10" shape="25.00,10.00 25.00,10.00"/>
    </edge>
    <edge id=":cc797e7a-d36a-4b22-b7c9-510678ea57e4-km-25-in_1" function="internal" bidi=":cc797e7a-d36a-4b22-b7c9-510678ea57e4-km-25-in_0">
        <lane id=":cc797e7a-d36a-4b22-b7c9-510678ea57e4-km-25-in_1_0" index="0" allow="rail rail_electric" speed="110.00" length="0.10" shape="25.00,10.00 25.00,10.00"/>
    </edge>
    <edge id=":d58eb937-37bb-4f66-ae78-5e2ab079bb42-km-25-gegen_0" function="internal" bidi=":d58eb937-37bb-4f66-ae78-5e2ab079bb42-km-25-gegen_1">
        <lane id=":d58eb937-37bb-4f66-ae78-5e2ab079bb42-km-25-gegen_0_0" index="0" allow="rail rail_electric" speed="110.00" length="0.10" shape="125.00,10.00 125.00,10.00"/>
    </edge>
    <edge id=":d58eb937-37bb-4f66-ae78-5e2ab079bb42-km-25-gegen_1" function="internal" bidi=":d58eb937-37bb-4f66-ae78-5e2ab079bb42-km-25-gegen_0">
        <lane id=":d58eb937-37bb-4f66-ae78-5e2ab079bb42-km-25-gegen_1_0" index="0" allow="rail rail_electric" speed="110.00" length="0.10" shape="125.00,10.00 125.00,10.00"/>
    </edge>
    <edge id=":ea816_0" function="internal">
        <lane id=":ea816_0_0" index="0" allow="rail rail_electric" speed="0.10" length="0.10" shape="350.00,20.00 350.00,20.00"/>
    </edge>
    <edge id=":f9b738b1-258c-457e-8734-86699efde525-km-25-gegen_0" function="internal" bidi=":f9b738b1-258c-457e-8734-86699efde525-km-25-gegen_1">
        <lane id=":f9b738b1-258c-457e-8734-86699efde525-km-25-gegen_0_0" index="0" allow="rail rail_electric" speed="110.00" length="0.10" shape="76.79,0.72 76.79,0.72"/>
    </edge>
    <edge id=":f9b738b1-258c-457e-8734-86699efde525-km-25-gegen_1" function="internal" bidi=":f9b738b1-258c-457e-8734-86699efde525-km-25-gegen_0">
        <lane id=":f9b738b1-258c-457e-8734-86699efde525-km-25-gegen_1_0" index="0" allow="rail rail_electric" speed="110.00" length="0.10" shape="76.79,0.72 76.79,0.72"/>
    </edge>

    <edge id="0bf49-0" from="46c80" to="6fe59d52-0da4-46fd-8deb-9e106dd0bf49-km-25-gegen" priority="-1" spreadType="center" bidi="0bf49-0-re">
        <lane id="0bf49-0_0" index="0" allow="rail rail_electric" speed="110.00" length="23.19" shape="301.81,20.00 325.00,20.00"/>
    </edge>
    <edge id="0bf49-0-re" from="6fe59d52-0da4-46fd-8deb-9e106dd0bf49-km-25-gegen" to="46c80" priority="-1" spreadType="center" bidi="0bf49-0">
        <lane id="0bf49-0-re_0" index="0" allow="rail rail_electric" speed="110.00" length="23.19" shape="325.00,20.00 301.81,20.00"/>
    </edge>
    <edge id="0bf49-1" from="6fe59d52-0da4-46fd-8deb-9e106dd0bf49-km-25-gegen" to="ea816" priority="-1" spreadType="center" bidi="0bf49-1-re">
        <lane id="0bf49-1_0" index="0" allow="rail rail_electric" speed="110.00" length="25.00" shape="325.00,20.00 350.00,20.00"/>
    </edge>
    <edge id="0bf49-1-re" from="ea816" to="6fe59d52-0da4-46fd-8deb-9e106dd0bf49-km-25-gegen" priority="-1" spreadType="center" bidi="0bf49-1">
        <lane id="0bf49-1-re_0" index="0" allow="rail rail_electric" speed="110.00" length="25.00" shape="350.00,20.00 325.00,20.00"/>
    </edge>
    <edge id="29444-0" from="39034" to="15bae" priority="-1" spreadType="center" shape="50.00,10.00 75.00,20.00 100.00,20.00" bidi="29444-0-re">
        <lane id="29444-0_0" index="0" allow="rail rail_electric" speed="110.00" length="40.31" shape="59.11,13.64 75.00,20.00 98.19,20.00"/>
    </edge>
    <edge id="29444-0-re" from="15bae" to="39034" priority="-1" spreadType="center" shape="100.00,20.00 75.00,20.00 50.00,10.00" bidi="29444-0">
        <lane id="29444-0-re_0" index="0" allow="rail rail_electric" speed="110.00" length="40.31" shape="98.19,20.00 75.00,20.00 59.11,13.64"/>
    </edge>
    <edge id="2b879-0" from="15bae" to="91294974-73db-49b6-80fc-5b77ac32b879-km-25-gegen" priority="-1" spreadType="center" bidi="2b879-0-re">
        <lane id="2b879-0_0" index="0" allow="rail rail_electric" speed="110.00" length="15.19" shape="109.11,23.64 123.21,29.28"/>
    </edge>
    <edge id="2b879-0-re" from="91294974-73db-49b6-80fc-5b77ac32b879-km-25-gegen" to="15bae" priority="-1" spreadType="center" bidi="2b879-0">
        <lane id="2b879-0-re_0" index="0" allow="rail rail_electric" speed="110.00" length="15.19" shape="123.21,29.28 109.11,23.64"/>
    </edge>
    <edge id="2b879-1" from="91294974-73db-49b6-80fc-5b77ac32b879-km-25-gegen" to="91294974-73db-49b6-80fc-5b77ac32b879-km-175-in" priority="-1" spreadType="center" shape="123.21,29.28 125.00,30.00 250.00,30.00 273.07,30.00" bidi="2b879-1-re">
        <lane id="2b879-1_0" index="0" allow="rail rail_electric" speed="110.00" length="150.00" shape="123.21,29.28 125.00,30.00 250.00,30.00 273.07,30.00"/>
    </edge>
    <edge id="2b879-1-re" from="91294974-73db-49b6-80fc-5b77ac32b879-km-175-in" to="91294974-73db-49b6-80fc-5b77ac32b879-km-25-gegen" priority="-1" spreadType="center" shape="273.07,30.00 250.00,30.00 125.00,30.00 123.21,29.28" bidi="2b879-1">
        <lane id="2b879-1-re_0" index="0" allow="rail rail_electric" speed="110.00" length="150.00" shape="273.07,30.00 250.00,30.00 125.00,30.00 123.21,29.28"/>
    </edge>
    <edge id="2b879-2" from="91294974-73db-49b6-80fc-5b77ac32b879-km-175-in" to="46c80" priority="-1" spreadType="center" shape="273.07,30.00 275.00,30.00 300.00,20.00" bidi="2b879-2-re">
        <lane id="2b879-2_0" index="0" allow="rail rail_electric" speed="110.00" length="19.04" shape="273.07,30.00 275.00,30.00 290.89,23.64"/>
    </edge>
    <edge id="2b879-2-re" from="46c80" to="91294974-73db-49b6-80fc-5b77ac32b879-km-175-in" priority="-1" spreadType="center" shape="300.00,20.00 275.00,30.00 273.07,30.00" bidi="2b879-2">
        <lane id="2b879-2-re_0" index="0" allow="rail rail_electric" speed="110.00" length="19.04" shape="290.89,23.64 275.00,30.00 273.07,30.00"/>
    </edge>
    <edge id="58ab8-0" from="15bae" to="74b5a339-3eb5-4853-9534-7a9cf7d58ab8-km-25-gegen" priority="-1" spreadType="center" bidi="58ab8-0-re">
        <lane id="58ab8-0_0" index="0" allow="rail rail_electric" speed="110.00" length="15.19" shape="109.81,20.00 125.00,20.00"/>
    </edge>
    <edge id="58ab8-0-re" from="74b5a339-3eb5-4853-9534-7a9cf7d58ab8-km-25-gegen" to="15bae" priority="-1" spreadType="center" bidi="58ab8-0">
        <lane id="58ab8-0-re_0" index="0" allow="rail rail_electric" speed="110.00" length="15.19" shape="125.00,20.00 109.81,20.00"/>
    </edge>
    <edge id="58ab8-1" from="74b5a339-3eb5-4853-9534-7a9cf7d58ab8-km-25-gegen" to="74b5a339-3eb5-4853-9534-7a9cf7d58ab8-km-175-in" priority="-1" spreadType="center" shape="125.00,20.00 250.00,20.00 275.00,20.00" bidi="58ab8-1-re">
        <lane id="58ab8-1_0" index="0" allow="rail rail_electric" speed="110.00" length="150.00" shape="125.00,20.00 250.00,20.00 275.00,20.00"/>
    </edge>
    <edge id="58ab8-1-re" from="74b5a339-3eb5-4853-9534-7a9cf7d58ab8-km-175-in" to="74b5a339-3eb5-4853-9534-7a9cf7d58ab8-km-25-gegen" priority="-1" spreadType="center" shape="275.00,20.00 250.00,20.00 125.00,20.00" bidi="58ab8-1">
        <lane id="58ab8-1-re_0" index="0" allow="rail rail_electric" speed="110.00" length="150.00" shape="275.00,20.00 250.00,20.00 125.00,20.00"/>
    </edge>
    <edge id="58ab8-2" from="74b5a339-3eb5-4853-9534-7a9cf7d58ab8-km-175-in" to="46c80" priority="-1" spreadType="center" bidi="58ab8-2-re">
        <lane id="58ab8-2_0" index="0" allow="rail rail_electric" speed="110.00" length="15.19" shape="275.00,20.00 290.19,20.00"/>
    </edge>
    <edge id="58ab8-2-re" from="46c80" to="74b5a339-3eb5-4853-9534-7a9cf7d58ab8-km-175-in" priority="-1" spreadType="center" bidi="58ab8-2">
        <lane id="58ab8-2-re_0" index="0" allow="rail rail_electric" speed="110.00" length="15.19" shape="290.19,20.00 275.00,20.00"/>
    </edge>
    <edge id="9bb42-0" from="cbe88" to="d58eb937-37bb-4f66-ae78-5e2ab079bb42-km-25-gegen" priority="-1" spreadType="center" bidi="9bb42-0-re">
        <lane id="9bb42-0_0" index="0" allow="rail rail_electric" speed="110.00" length="23.19" shape="101.81,10.00 125.00,10.00"/>
    </edge>
    <edge id="9bb42-0-re" from="d58eb937-37bb-4f66-ae78-5e2ab079bb42-km-25-gegen" to="cbe88" priority="-1" spreadType="center" bidi="9bb42-0">
        <lane id="9bb42-0-re_0" index="0" allow="rail rail_electric" speed="110.00" length="23.19" shape="125.00,10.00 101.81,10.00"/>
    </edge>
    <edge id="9bb42-1" from="d58eb937-37bb-4f66-ae78-5e2ab079bb42-km-25-gegen" to="05727" priority="-1" spreadType="center" bidi="9bb42-1-re">
        <lane id="9bb42-1_0" index="0" allow="rail rail_electric" speed="110.00" length="125.00" shape="125.00,10.00 250.00,10.00"/>
    </edge>
    <edge id="9bb42-1-re" from="05727" to="d58eb937-37bb-4f66-ae78-5e2ab079bb42-km-25-gegen" priority="-1" spreadType="center" bidi="9bb42-1">
        <lane id="9bb42-1-re_0" index="0" allow="rail rail_electric" speed="110.00" length="125.00" shape="250.00,10.00 125.00,10.00"/>
    </edge>
    <edge id="a57e4-0" from="127af" to="cc797e7a-d36a-4b22-b7c9-510678ea57e4-km-25-in" priority="-1" spreadType="center" bidi="a57e4-0-re">
        <lane id="a57e4-0_0" index="0" allow="rail rail_electric" speed="110.00" length="25.00" shape="0.00,10.00 25.00,10.00"/>
    </edge>
    <edge id="a57e4-0-re" from="cc797e7a-d36a-4b22-b7c9-510678ea57e4-km-25-in" to="127af" priority="-1" spreadType="center" bidi="a57e4-0">
        <lane id="a57e4-0-re_0" index="0" allow="rail rail_electric" speed="110.00" length="25.00" shape="25.00,10.00 0.00,10.00"/>
    </edge>
    <edge id="a57e4-1" from="cc797e7a-d36a-4b22-b7c9-510678ea57e4-km-25-in" to="39034" priority="-1" spreadType="center" bidi="a57e4-1-re">
        <lane id="a57e4-1_0" index="0" allow="rail rail_electric" speed="110.00" length="23.19" shape="25.00,10.00 48.19,10.00"/>
    </edge>
    <edge id="a57e4-1-re" from="39034" to="cc797e7a-d36a-4b22-b7c9-510678ea57e4-km-25-in" priority="-1" spreadType="center" bidi="a57e4-1">
        <lane id="a57e4-1-re_0" index="0" allow="rail rail_electric" speed="110.00" length="23.19" shape="48.19,10.00 25.00,10.00"/>
    </edge>
    <edge id="c6b16-0" from="39034" to="cbe88" priority="-1" spreadType="center" shape="50.00,10.00 75.00,10.00 100.00,10.00" bidi="c6b16-0-re">
        <lane id="c6b16-0_0" index="0" allow="rail rail_electric" speed="110.00" length="30.38" shape="59.81,10.00 75.00,10.00 90.19,10.00"/>
    </edge>
    <edge id="c6b16-0-re" from="cbe88" to="39034" priority="-1" spreadType="center" shape="100.00,10.00 75.00,10.00 50.00,10.00" bidi="c6b16-0">
        <lane id="c6b16-0-re_0" index="0" allow="rail rail_electric" speed="110.00" length="30.38" shape="90.19,10.00 75.00,10.00 59.81,10.00"/>
    </edge>
    <edge id="de525-0" from="cbe88" to="f9b738b1-258c-457e-8734-86699efde525-km-25-gegen" priority="-1" spreadType="center" bidi="de525-0-re">
        <lane id="de525-0_0" index="0" allow="rail rail_electric" speed="110.00" length="15.19" shape="90.89,6.36 76.79,0.72"/>
    </edge>
    <edge id="de525-0-re" from="f9b738b1-258c-457e-8734-86699efde525-km-25-gegen" to="cbe88" priority="-1" spreadType="center" bidi="de525-0">
        <lane id="de525-0-re_0" index="0" allow="rail rail_electric" speed="110.00" length="15.19" shape="76.79,0.72 90.89,6.36"/>
    </edge>
    <edge id="de525-1" from="f9b738b1-258c-457e-8734-86699efde525-km-25-gegen" to="61101" priority="-1" spreadType="center" shape="76.79,0.72 75.00,0.00 0.00,0.00" bidi="de525-1-re">
        <lane id="de525-1_0" index="0" allow="rail rail_electric" speed="110.00" length="76.93" shape="76.79,0.72 75.00,0.00 0.00,0.00"/>
    </edge>
    <edge id="de525-1-re" from="61101" to="f9b738b1-258c-457e-8734-86699efde525-km-25-gegen" priority="-1" spreadType="center" shape="0.00,0.00 75.00,0.00 76.79,0.72" bidi="de525-1">
        <lane id="de525-1-re_0" index="0" allow="rail rail_electric" speed="110.00" length="76.93" shape="0.00,0.00 75.00,0.00 76.79,0.72"/>
    </edge>

    <junction id="05727" type="priority" x="250.00" y="10.00" incLanes="9bb42-1_0" intLanes=":05727_0_0" shape="250.00,8.40 250.00,11.60 250.00,8.40 250.00,11.60">
        <request index="0" response="0" foes="0" cont="0"/>
    </junction>
    <junction id="127af" type="priority" x="0.00" y="10.00" incLanes="a57e4-0-re_0" intLanes=":127af_0_0" shape="0.00,11.60 0.00,8.40 0.00,11.60 0.00,8.40">
        <request index="0" response="0" foes="0" cont="0"/>
    </junction>
    <junction id="15bae" type="priority" x="100.00" y="20.00" incLanes="2b879-0-re_0 58ab8-0-re_0 29444-0_0" intLanes=":15bae_0_0 :15bae_1_0 :15bae_2_0 :15bae_3_0" shape="108.51,25.13 109.70,22.16 109.81,21.60 109.81,18.40 98.19,18.40 98.19,21.60 100.50,21.72 102.17,22.06 103.50,22.60 104.80,23.31 106.37,24.16">
        <request index="0" response="1100" foes="1100" cont="0"/>
        <request index="1" response="0000" foes="0000" cont="0"/>
        <request index="2" response="0000" foes="0001" cont="0"/>
        <request index="3" response="0000" foes="0001" cont="0"/>
    </junction>
    <junction id="39034" type="priority" x="50.00" y="10.00" incLanes="29444-0-re_0 c6b16-0-re_0 a57e4-1_0" intLanes=":39034_0_0 :39034_1_0 :39034_2_0 :39034_3_0" shape="58.51,15.13 59.70,12.16 59.81,11.60 59.81,8.40 48.19,8.40 48.19,11.60 50.50,11.72 52.17,12.06 53.50,12.60 54.80,13.31 56.37,14.16">
        <request index="0" response="1100" foes="1100" cont="0"/>
        <request index="1" response="0000" foes="0000" cont="0"/>
        <request index="2" response="0000" foes="0001" cont="0"/>
        <request index="3" response="0000" foes="0001" cont="0"/>
    </junction>
    <junction id="46c80" type="priority" x="300.00" y="20.00" incLanes="0bf49-0-re_0 58ab8-2_0 2b879-2_0" intLanes=":46c80_0_0 :46c80_1_0 :46c80_2_0 :46c80_3_0" shape="301.81,21.60 301.81,18.40 290.19,18.40 290.19,21.60 290.30,22.16 291.49,25.13 293.63,24.16 295.20,23.31 296.50,22.60 297.83,22.06 299.50,21.72">
        <request index="0" response="0000" foes="1100" cont="0"/>
        <request index="1" response="0000" foes="0000" cont="0"/>
        <request index="2" response="0001" foes="0001" cont="0"/>
        <request index="3" response="0001" foes="0001" cont="0"/>
    </junction>
    <junction id="61101" type="priority" x="0.00" y="0.00" incLanes="de525-1_0" intLanes=":61101_0_0" shape="0.00,1.60 0.00,-1.60 0.00,1.60 0.00,-1.60">
        <request index="0" response="0" foes="0" cont="0"/>
    </junction>
    <junction id="6fe59d52-0da4-46fd-8deb-9e106dd0bf49-km-25-gegen" type="rail_signal" x="325.00" y="20.00" incLanes="0bf49-1-re_0 0bf49-0_0" intLanes=":6fe59d52-0da4-46fd-8deb-9e106dd0bf49-km-25-gegen_0_0 :6fe59d52-0da4-46fd-8deb-9e106dd0bf49-km-25-gegen_1_0" shape="325.00,21.60 325.00,18.40 325.00,21.60">
        <request index="0" response="00" foes="00" cont="0"/>
        <request index="1" response="00" foes="00" cont="0"/>
    </junction>
    <junction id="74b5a339-3eb5-4853-9534-7a9cf7d58ab8-km-175-in" type="rail_signal" x="275.00" y="20.00" incLanes="58ab8-2-re_0 58ab8-1_0" intLanes=":74b5a339-3eb5-4853-9534-7a9cf7d58ab8-km-175-in_0_0 :74b5a339-3eb5-4853-9534-7a9cf7d58ab8-km-175-in_1_0" shape="275.00,21.60 275.00,18.40 275.00,21.60">
        <request index="0" response="00" foes="00" cont="0"/>
        <request index="1" response="00" foes="00" cont="0"/>
    </junction>
    <junction id="74b5a339-3eb5-4853-9534-7a9cf7d58ab8-km-25-gegen" type="rail_signal" x="125.00" y="20.00" incLanes="58ab8-1-re_0 58ab8-0_0" intLanes=":74b5a339-3eb5-4853-9534-7a9cf7d58ab8-km-25-gegen_0_0 :74b5a339-3eb5-4853-9534-7a9cf7d58ab8-km-25-gegen_1_0" shape="125.00,21.60 125.00,18.40 125.00,21.60">
        <request index="0" response="00" foes="00" cont="0"/>
        <request index="1" response="00" foes="00" cont="0"/>
    </junction>
    <junction id="91294974-73db-49b6-80fc-5b77ac32b879-km-175-in" type="rail_signal" x="273.07" y="30.00" incLanes="2b879-2-re_0 2b879-1_0" intLanes=":91294974-73db-49b6-80fc-5b77ac32b879-km-175-in_0_0 :91294974-73db-49b6-80fc-5b77ac32b879-km-175-in_1_0" shape="273.07,31.60 273.07,28.40 273.07,31.60">
        <request index="0" response="00" foes="00" cont="0"/>
        <request index="1" response="00" foes="00" cont="0"/>
    </junction>
    <junction id="91294974-73db-49b6-80fc-5b77ac32b879-km-25-gegen" type="rail_signal" x="123.21" y="29.28" incLanes="2b879-1-re_0 2b879-0_0" intLanes=":91294974-73db-49b6-80fc-5b77ac32b879-km-25-gegen_0_0 :91294974-73db-49b6-80fc-5b77ac32b879-km-25-gegen_1_0" shape="122.62,30.77 123.81,27.80 122.62,30.77">
        <request index="0" response="00" foes="00" cont="0"/>
        <request index="1" response="00" foes="00" cont="0"/>
    </junction>
    <junction id="cbe88" type="priority" x="100.00" y="10.00" incLanes="9bb42-0-re_0 de525-0-re_0 c6b16-0_0" intLanes=":cbe88_0_0 :cbe88_1_0 :cbe88_2_0 :cbe88_3_0" shape="101.81,11.60 101.81,8.40 99.50,8.28 97.83,7.94 96.50,7.40 95.20,6.69 93.63,5.84 91.49,4.87 90.30,7.84 90.19,8.40 90.19,11.60">
        <request index="0" response="0000" foes="0010" cont="0"/>
        <request index="1" response="1001" foes="1001" cont="0"/>
        <request index="2" response="0000" foes="0000" cont="0"/>
        <request index="3" response="0000" foes="0010" cont="0"/>
    </junction>
    <junction id="cc797e7a-d36a-4b22-b7c9-510678ea57e4-km-25-in" type="rail_signal" x="25.00" y="10.00" incLanes="a57e4-1-re_0 a57e4-0_0" intLanes=":cc797e7a-d36a-4b22-b7c9-510678ea57e4-km-25-in_0_0 :cc797e7a-d36a-4b22-b7c9-510678ea57e4-km-25-in_1_0" shape="25.00,11.60 25.00,8.40 25.00,11.60">
        <request index="0" response="00" foes="00" cont="0"/>
        <request index="1" response="00" foes="00" cont="0"/>
    </junction>
    <junction id="d58eb937-37bb-4f66-ae78-5e2ab079bb42-km-25-gegen" type="rail_signal" x="125.00" y="10.00" incLanes="9bb42-1-re_0 9bb42-0_0" intLanes=":d58eb937-37bb-4f66-ae78-5e2ab079bb42-km-25-gegen_0_0 :d58eb937-37bb-4f66-ae78-5e2ab079bb42-km-25-gegen_1_0" shape="125.00,11.60 125.00,8.40 125.00,11.60">
        <request index="0" response="00" foes="00" cont="0"/>
        <request index="1" response="00" foes="00" cont="0"/>
    </junction>
    <junction id="ea816" type="priority" x="350.00" y="20.00" incLanes="0bf49-1_0" intLanes=":ea816_0_0" shape="350.00,18.40 350.00,21.60 350.00,18.40 350.00,21.60">
        <request index="0" response="0" foes="0" cont="0"/>
    </junction>
    <junction id="f9b738b1-258c-457e-8734-86699efde525-km-25-gegen" type="rail_signal" x="76.79" y="0.72" incLanes="de525-0_0 de525-1-re_0" intLanes=":f9b738b1-258c-457e-8734-86699efde525-km-25-gegen_0_0 :f9b738b1-258c-457e-8734-86699efde525-km-25-gegen_1_0" shape="76.19,2.20 77.38,-0.77 76.19,2.20">
        <request index="0" response="00" foes="00" cont="0"/>
        <request index="1" response="00" foes="00" cont="0"/>
    </junction>

    <connection from="0bf49-0" to="0bf49-1" fromLane="0" toLane="0" via=":6fe59d52-0da4-46fd-8deb-9e106dd0bf49-km-25-gegen_1_0" tl="6fe59d52-0da4-46fd-8deb-9e106dd0bf49-km-25-gegen" linkIndex="1" dir="s" state="O"/>
    <connection from="0bf49-0-re" to="58ab8-2-re" fromLane="0" toLane="0" via=":46c80_0_0" dir="s" state="M"/>
    <connection from="0bf49-1" to="0bf49-1-re" fromLane="0" toLane="0" speed="0.10" via=":ea816_0_0" dir="t" state="M"/>
    <connection from="0bf49-1-re" to="0bf49-0-re" fromLane="0" toLane="0" via=":6fe59d52-0da4-46fd-8deb-9e106dd0bf49-km-25-gegen_0_0" tl="6fe59d52-0da4-46fd-8deb-9e106dd0bf49-km-25-gegen" linkIndex="0" dir="s" state="O"/>
    <connection from="29444-0" to="58ab8-0" fromLane="0" toLane="0" via=":15bae_3_0" dir="s" state="M"/>
    <connection from="29444-0-re" to="c6b16-0" fromLane="0" toLane="0" via=":39034_0_0" dir="l" state="M"/>
    <connection from="2b879-0" to="2b879-1" fromLane="0" toLane="0" via=":91294974-73db-49b6-80fc-5b77ac32b879-km-25-gegen_1_0" tl="91294974-73db-49b6-80fc-5b77ac32b879-km-25-gegen" linkIndex="1" dir="s" state="O"/>
    <connection from="2b879-0-re" to="58ab8-0" fromLane="0" toLane="0" via=":15bae_0_0" dir="l" state="M"/>
    <connection from="2b879-1" to="2b879-2" fromLane="0" toLane="0" via=":91294974-73db-49b6-80fc-5b77ac32b879-km-175-in_1_0" tl="91294974-73db-49b6-80fc-5b77ac32b879-km-175-in" linkIndex="1" dir="s" state="O"/>
    <connection from="2b879-1-re" to="2b879-0-re" fromLane="0" toLane="0" via=":91294974-73db-49b6-80fc-5b77ac32b879-km-25-gegen_0_0" tl="91294974-73db-49b6-80fc-5b77ac32b879-km-25-gegen" linkIndex="0" dir="s" state="O"/>
    <connection from="2b879-2" to="58ab8-2-re" fromLane="0" toLane="0" via=":46c80_3_0" dir="r" state="M"/>
    <connection from="2b879-2-re" to="2b879-1-re" fromLane="0" toLane="0" via=":91294974-73db-49b6-80fc-5b77ac32b879-km-175-in_0_0" tl="91294974-73db-49b6-80fc-5b77ac32b879-km-175-in" linkIndex="0" dir="s" state="O"/>
    <connection from="58ab8-0" to="58ab8-1" fromLane="0" toLane="0" via=":74b5a339-3eb5-4853-9534-7a9cf7d58ab8-km-25-gegen_1_0" tl="74b5a339-3eb5-4853-9534-7a9cf7d58ab8-km-25-gegen" linkIndex="1" dir="s" state="O"/>
    <connection from="58ab8-0-re" to="2b879-0" fromLane="0" toLane="0" via=":15bae_1_0" dir="r" state="M"/>