<?xml version="1.0" encoding="UTF-8"?>
<routes xmlns:xsi="http://www.w3.org/2001/XMLSchema-instance" xsi:noNamespaceSchemaLocation="http://sumo.dlr.de/xsd/routes_file.xsd">
	<route edges="bf53d-0 bf53d-1 9a917-0 8f9a9-0 8f9a9-1" color="23,161,148" id="route_94A6F92A-0C2A-40DC-87D6-CCD0E55BF53D-KM-25-IN-8710DD8C-F9CC-4674-9956-197809E8F9A9-KM-175-IN"/>
	<route edges="bf53d-0 bf53d-1 9a917-0 84ef4-0 84ef4-1" color="90,150,56" id="route_94A6F92A-0C2A-40DC-87D6-CCD0E55BF53D-KM-25-IN-61A1600E-997A-4C88-9EC0-89C53D884EF4-KM-175-IN"/>
	<route edges="4f644-1-re 4f644-0-re 84ef4-2-re 84ef4-1-re" color="67,164,135" id="route_F3A18358-B059-4033-94CC-9C79FFA4F644-KM-25-GEGEN-61A1600E-997A-4C88-9EC0-89C53D884EF4-KM-25-GEGEN"/>
	<route edges="4f644-1-re 4f644-0-re 8f9a9-2-re 8f9a9-1-re" color="184,24,34" id="route_F3A18358-B059-4033-94CC-9C79FFA4F644-KM-25-GEGEN-8710DD8C-F9CC-4674-9956-197809E8F9A9-KM-25-GEGEN"/>

	<vType id="regio" accel="2.5" decel="1.3" length="20.00" vClass="rail" color="193,18,28" />

	<vType id="ice" accel="5" decel="1.3" length="60.00" vClass="rail_electric" color="192,192,192" />

	<vType id="cargo" accel="2.5" decel="1.3" length="80.00" vClass="rail" color="30,30,30" />

</routes>
