<edges>
<!-- Track cc797e7a-d36a-4b22-b7c9-510678ea57e4 -->
<edge id="a57e4-0" from="127af" to="cc797e7a-d36a-4b22-b7c9-510678ea57e4-km-25-in" shape="-4533770.0,-5625770.0 -4533745.0,-5625770.0" priority="-1" numLanes="1" speed="110.0" allow="rail rail_electric" spreadType="center" />
<edge id="a57e4-0-re" from="cc797e7a-d36a-4b22-b7c9-510678ea57e4-km-25-in" to="127af" shape="-4533745.0,-5625770.0 -4533770.0,-5625770.0" priority="-1" numLanes="1" speed="110.0" allow="rail rail_electric" spreadType="center" />
<!-- Track cc797e7a-d36a-4b22-b7c9-510678ea57e4 -->
<edge id="a57e4-1" from="cc797e7a-d36a-4b22-b7c9-510678ea57e4-km-25-in" to="39034" shape="-4533745.0,-5625770.0 -4533720.0,-5625770.0" priority="-1" numLanes="1" speed="110.0" allow="rail rail_electric" spreadType="center" />
<edge id="a57e4-1-re" from="39034" to="cc797e7a-d36a-4b22-b7c9-510678ea57e4-km-25-in" shape="-4533720.0,-5625770.0 -4533745.0,-5625770.0" priority="-1" numLanes="1" speed="110.0" allow="rail rail_electric" spreadType="center" />
<!-- Track 04684440-e019-4146-9a41-3532c4dc6b16 -->
<edge id="c6b16-0" from="39034" to="cbe88" shape="-4533720.0,-5625770.0 -4533695.0,-5625770.0 -4533670.0,-5625770.0" priority="-1" numLanes="1" speed="110.0" allow="rail rail_electric" spreadType="center" />
<edge id="c6b16-0-re" from="cbe88" to="39034" shape="-4533670.0,-5625770.0 -4533695.0,-5625770.0 -4533720.0,-5625770.0" priority="-1" numLanes="1" speed="110.0" allow="rail rail_electric" spreadType="center" />
<!-- Track 5c409c80-9d70-4634-8a34-127f73129444 -->
<edge id="29444-0" from="39034" to="15bae" shape="-4533720.0,-5625770.0 -4533695.0,-5625760.0 -4533670.0,-5625760.0" priority="-1" numLanes="1" speed="110.0" allow="rail rail_electric" spreadType="center" />
<edge id="29444-0-re" from="15bae" to="39034" shape="-4533670.0,-5625760.0 -4533695.0,-5625760.0 -4533720.0,-5625770.0" priority="-1" numLanes="1" speed="110.0" allow="rail rail_electric" spreadType="center" />
<!-- Track f9b738b1-258c-457e-8734-86699efde525 -->
<edge id="de525-0" from="cbe88" to="f9b738b1-258c-457e-8734-86699efde525-km-25-gegen" shape="-4533670.0,-5625770.0 -4533693.211917272,-5625779.284766909" priority="-1" numLanes="1" speed="110.0" allow="rail rail_electric" spreadType="center" />
<edge id="de525-0-re" from="f9b738b1-258c-457e-8734-86699efde525-km-25-gegen" to="cbe88" shape="-4533693.211917272,-5625779.284766909 -4533670.0,-5625770.0" priority="-1" numLanes="1" speed="110.0" allow="rail rail_electric" spreadType="center" />
<!-- Track f9b738b1-258c-457e-8734-86699efde525 -->
<edge id="de525-1" from="f9b738b1-258c-457e-8734-86699efde525-km-25-gegen" to="61101" shape="-4533693.211917272,-5625779.284766909 -4533695.0,-5625780.0 -4533770.0,-5625780.0" priority="-1" numLanes="1" speed="110.0" allow="rail rail_electric" spreadType="center" />
<edge id="de525-1-re" from="61101" to="f9b738b1-258c-457e-8734-86699efde525-km-25-gegen" shape="-4533770.0,-5625780.0 -4533695.0,-5625780.0 -4533693.211917272,-5625779.284766909" priority="-1" numLanes="1" speed="110.0" allow="rail rail_electric" spreadType="center" />
<!-- Track d58eb937-37bb-4f66-ae78-5e2ab079bb42 -->
<edge id="9bb42-0" from="cbe88" to="d58eb937-37bb-4f66-ae78-5e2ab079bb42-km-25-gegen" shape="-4533670.0,-5625770.0 -4533645.0,-5625770.0" priority="-1" numLanes="1" speed="110.0" allow="rail rail_electric" spreadType="center" />
<edge id="9bb42-0-re" from="d58eb937-37bb-4f66-ae78-5e2ab079bb42-km-25-gegen" to="cbe88" shape="-4533645.0,-5625770.0 -4533670.0,-5625770.0" priority="-1" numLanes="1" speed="110.0" allow="rail rail_electric" spreadType="center" />
<!-- Track d58eb937-37bb-4f66-ae78-5e2ab079bb42 -->
<edge id="9bb42-1" from="d58eb937-37bb-4f66-ae78-5e2ab079bb42-km-25-gegen" to="05727" shape="-4533645.0,-5625770.0 -4533520.0,-5625770.0" priority="-1" numLanes="1" speed="110.0" allow="rail rail_electric" spreadType="center" />
<edge id="9bb42-1-re" from="05727" to="d58eb937-37bb-4f66-ae78-5e2ab079bb42-km-25-gegen" shape="-4533520.0,-5625770.0 -4533645.0,-5625770.0" priority="-1" numLanes="1" speed="110.0" allow="rail rail_electric" spreadType="center" />
<!-- Track 74b5a339-3eb5-4853-9534-7a9cf7d58ab8 -->
<edge id="58ab8-0" from="15bae" to="74b5a339-3eb5-4853-9534-7a9cf7d58ab8-km-25-gegen" shape="-4533670.0,-5625760.0 -4533645.0,-5625760.0" priority="-1" numLanes="1" speed="110.0" allow="rail rail_electric" spreadType="center" />
<edge id="58ab8-0-re" from="74b5a339-3eb5-4853-9534-7a9cf7d58ab8-km-25-gegen" to="15bae" shape="-4533645.0,-5625760.0 -4533670.0,-5625760.0" priority="-1" numLanes="1" speed="110.0" allow="rail rail_electric" spreadType="center" />
<!-- Track 74b5a339-3eb5-4853-9534-7a9cf7d58ab8 -->
<edge id="58ab8-1" from="74b5a339-3eb5-4853-9534-7a9cf7d58ab8-km-25-gegen" to="74b5a339-3eb5-4853-9534-7a9cf7d58ab8-km-175-in" shape="-4533645.0,-5625760.0 -4533520.0,-5625760.0 -4533495.0,-5625760.0" priority="-1" numLanes="1" speed="110.0" allow="rail rail_electric" spreadType="center" />
<edge id="58ab8-1-re" from="74b5a339-3eb5-4853-9534-7a9cf7d58ab8-km-175-in" to="74b5a339-3eb5-4853-9534-7a9cf7d58ab8-km-25-gegen" shape="-4533495.0,-5625760.0 -4533520.0,-5625760.0 -4533645.0,-5625760.0" priority="-1" numLanes="1" speed="110.0" allow="rail rail_electric" spreadType="center" />
<!-- Track 74b5a339-3eb5-4853-9534-7a9cf7d58ab8 -->
<edge id="58ab8-2" from="74b5a339-3eb5-4853-9534-7a9cf7d58ab8-km-175-in" to="46c80" shape="-4533495.0,-5625760.0 -4533470.0,-5625760.0" priority="-1" numLanes="1" speed="110.0" allow="rail rail_electric" spreadType="center" />
<edge id="58ab8-2-re" from="46c80" to="74b5a339-3eb5-4853-9534-7a9cf7d58ab8-km-175-in" shape="-4533470.0,-5625760.0 -4533495.0,-5625760.0" priority="-1" numLanes="1" speed="110.0" allow="rail rail_electric" spreadType="center" />
<!-- Track 91294974-73db-49b6-80fc-5b77ac32b879 -->
<edge id="2b879-0" from="15bae" to="91294974-73db-49b6-80fc-5b77ac32b879-km-25-gegen" shape="-4533670.0,-5625760.0 -4533646.788082728,-5625750.715233091" priority="-1" numLanes="1" speed="110.0" allow="rail rail_electric" spreadType="center" />
<edge id="2b879-0-re" from="91294974-73db-49b6-80fc-5b77ac32b879-km-25-gegen" to="15bae" shape="-4533646.788082728,-5625750.715233091 -4533670.0,-5625760.0" priority="-1" numLanes="1" speed="110.0" allow="rail rail_electric" spreadType="center" />
<!-- Track 91294974-73db-49b6-80fc-5b77ac32b879 -->
<edge id="2b879-1" from="91294974-73db-49b6-80fc-5b77ac32b879-km-25-gegen" to="91294974-73db-49b6-80fc-5b77ac32b879-km-175-in" shape="-4533646.788082728,-5625750.715233091 -4533645.0,-5625750.0 -4533520.0,-5625750.0 -4533496.925824036,-5625750.0" priority="-1" numLanes="1" speed="110.0" allow="rail rail_electric" spreadType="center" />
<edge id="2b879-1-re" from="91294974-73db-49b6-80fc-5b77ac32b879-km-175-in" to="91294974-73db-49b6-80fc-5b77ac32b879-km-25-gegen" shape="-4533496.925824036,-5625750.0 -4533520.0,-5625750.0 -4533645.0,-5625750.0 -4533646.788082728,-5625750.715233091" priority="-1" numLanes="1" speed="110.0" allow="rail rail_electric" spreadType="center" />
<!-- Track 91294974-73db-49b6-80fc-5b77ac32b879 -->
<edge id="2b879-2" from="91294974-73db-49b6-80fc-5b77ac32b879-km-175-in" to="46c80" shape="-4533496.925824036,-5625750.0 -4533495.0,-5625750.0 -4533470.0,-5625760.0" priority="-1" numLanes="1" speed="110.0" allow="rail rail_electric" spreadType="center" />
<edge id="2b879-2-re" from="46c80" to="91294974-73db-49b6-80fc-5b77ac32b879-km-175-in" shape="-4533470.0,-5625760.0 -4533495.0,-5625750.0 -4533496.925824036,-5625750.0" priority="-1" numLanes="1" speed="110.0" allow="rail rail_electric" spreadType="center" />
<!-- Track 6fe59d52-0da4-46fd-8deb-9e106dd0bf49 -->
<edge id="0bf49-0" from="46c80" to="6fe59d52-0da4-46fd-8deb-9e106dd0bf49-km-25-gegen" shape="-4533470.0,-5625760.0 -4533445.0,-5625760.0" priority="-1" numLanes="1" speed="110.0" allow="rail rail_electric" spreadType="center" />
<edge id="0bf49-0-re" from="6fe59d52-0da4-46fd-8deb-9e106dd0bf49-km-25-gegen" to="46c80" shape="-4533445.0,-5625760.0 -4533470.0,-5625760.0" priority="-1" numLanes="1" speed="110.0" allow="rail rail_electric" spreadType="center" />
<!-- Track 6fe59d52-0da4-46fd-8deb-9e106dd0bf49 -->
<edge id="0bf49-1" from="6fe59d52-0da4-46fd-8deb-9e106dd0bf49-km-25-gegen" to="ea816" shape="-4533445.0,-5625760.0 -4533420.0,-5625760.0" priority="-1" numLanes="1" speed="110.0" allow="rail rail_electric" spreadType="center" />
<edge id="0bf49-1-re" from="ea816" to="6fe59d52-0da4-46fd-8deb-9e106dd0bf49-km-25-gegen" shape="-4533420.0,-5625760.0 -4533445.0,-5625760.0" priority="-1" numLanes="1" speed="110.0" allow="rail rail_electric" spreadType="center" />
</edges>
