<?xml version="1.0" encoding="UTF-8"?>

<!-- generated on 2023-05-25 11:49:14 by Eclipse SUMO netedit Version 1.15.0
-->

<additional xmlns:xsi="http://www.w3.org/2001/XMLSchema-instance" xsi:noNamespaceSchemaLocation="http://sumo.dlr.de/xsd/additional_file.xsd">
    <!-- StoppingPlaces -->
    <busStop id="station-2" lane="2b879-1_0" startPos="26.39" endPos="76.39"/>
    <busStop id="station-1" lane="58ab8-1_0" startPos="26.01" endPos="76.01"/>
    <busStop id="station-0" lane="9bb42-1_0" startPos="27.12" endPos="77.12"/>
</additional>
