<?xml version="1.0" encoding="UTF-8"?>

<!-- generated on 2023-02-09 11:08:39 by Eclipse SUMO netconvert Version 1.15.0
<configuration xmlns:xsi="http://www.w3.org/2001/XMLSchema-instance" xsi:noNamespaceSchemaLocation="http://sumo.dlr.de/xsd/netconvertConfiguration.xsd">

    <input>
        <node-files value="sumo-config/example2.nod.xml"/>
        <edge-files value="sumo-config/example2.edg.xml"/>
        <connection-files value="sumo-config/example2.con.xml"/>
    </input>

    <output>
        <output-file value="sumo-config/example2.net.xml"/>
    </output>

    <railway>
        <railway.topology.repair value="true"/>
        <railway.topology.repair.connect-straight value="true"/>
        <railway.topology.all-bidi value="false"/>
    </railway>

</configuration>
-->

<net version="1.9" junctionCornerDetail="5" limitTurnSpeed="5.50" xmlns:xsi="http://www.w3.org/2001/XMLSchema-instance" xsi:noNamespaceSchemaLocation="http://sumo.dlr.de/xsd/net_file.xsd">

    <location netOffset="4533770.00,5625780.00" convBoundary="0.00,0.00,350.00,30.00" origBoundary="-4533770.00,-5625780.00,-4533420.00,-5625750.00" projParameter="!"/>

    <edge id=":01ff1b08-fb63-457e-9823-c523938b2e35-km-25_0" function="internal" bidi=":01ff1b08-fb63-457e-9823-c523938b2e35-km-25_1">
        <lane id=":01ff1b08-fb63-457e-9823-c523938b2e35-km-25_0_0" index="0" allow="rail rail_electric" speed="110.00" length="0.10" shape="325.00,20.00 325.00,20.00"/>
    </edge>
    <edge id=":01ff1b08-fb63-457e-9823-c523938b2e35-km-25_1" function="internal" bidi=":01ff1b08-fb63-457e-9823-c523938b2e35-km-25_0">
        <lane id=":01ff1b08-fb63-457e-9823-c523938b2e35-km-25_1_0" index="0" allow="rail rail_electric" speed="110.00" length="0.10" shape="325.00,20.00 325.00,20.00"/>
    </edge>
    <edge id=":13bb4_0" function="internal">
        <lane id=":13bb4_0_0" index="0" allow="rail rail_electric" speed="0.10" length="0.10" shape="0.00,0.00 0.00,0.00"/>
    </edge>
    <edge id=":1a095_0" function="internal">
        <lane id=":1a095_0_0" index="0" allow="rail rail_electric" speed="0.10" length="0.10" shape="350.00,20.00 350.00,20.00"/>
    </edge>
    <edge id=":3b2ee_0" function="internal" bidi=":3b2ee_3">
        <lane id=":3b2ee_0_0" index="0" allow="rail rail_electric" speed="110.00" length="11.63" shape="109.11,23.64 106.15,22.29 103.78,21.12 101.35,20.31 98.19,20.00"/>
    </edge>
    <edge id=":3b2ee_1" function="internal" bidi=":3b2ee_2">
        <lane id=":3b2ee_1_0" index="0" allow="rail rail_electric" speed="110.00" length="11.62" shape="109.81,20.00 98.19,20.00"/>
    </edge>
    <edge id=":3b2ee_2" function="internal" bidi=":3b2ee_1">
        <lane id=":3b2ee_2_0" index="0" allow="rail rail_electric" speed="110.00" length="11.62" shape="98.19,20.00 109.81,20.00"/>
    </edge>
    <edge id=":3b2ee_3" function="internal" bidi=":3b2ee_0">
        <lane id=":3b2ee_3_0" index="0" allow="rail rail_electric" speed="110.00" length="11.63" shape="98.19,20.00 101.35,20.31 103.78,21.12 106.15,22.29 109.11,23.64"/>
    </edge>
    <edge id=":3ca2dedd-2ffc-4b75-9083-3ab21f1460b0-km-25_0" function="internal" bidi=":3ca2dedd-2ffc-4b75-9083-3ab21f1460b0-km-25_1">
        <lane id=":3ca2dedd-2ffc-4b75-9083-3ab21f1460b0-km-25_0_0" index="0" allow="rail rail_electric" speed="110.00" length="0.10" shape="76.79,0.72 76.79,0.72"/>
    </edge>
    <edge id=":3ca2dedd-2ffc-4b75-9083-3ab21f1460b0-km-25_1" function="internal" bidi=":3ca2dedd-2ffc-4b75-9083-3ab21f1460b0-km-25_0">
        <lane id=":3ca2dedd-2ffc-4b75-9083-3ab21f1460b0-km-25_1_0" index="0" allow="rail rail_electric" speed="110.00" length="0.10" shape="76.79,0.72 76.79,0.72"/>
    </edge>
    <edge id=":3cdb8_0" function="internal" bidi=":3cdb8_1">
        <lane id=":3cdb8_0_0" index="0" allow="rail rail_electric" speed="110.00" length="0.10" shape="250.00,30.00 250.00,30.00"/>
    </edge>
    <edge id=":3cdb8_1" function="internal" bidi=":3cdb8_0">
        <lane id=":3cdb8_1_0" index="0" allow="rail rail_electric" speed="110.00" length="0.10" shape="250.00,30.00 250.00,30.00"/>
    </edge>
    <edge id=":3e5bb_0" function="internal">
        <lane id=":3e5bb_0_0" index="0" allow="rail rail_electric" speed="0.10" length="0.10" shape="250.00,10.00 250.00,10.00"/>
    </edge>
    <edge id=":4f8ce8a3-eeba-498b-a787-6bbc635faa47-km-25_0" function="internal" bidi=":4f8ce8a3-eeba-498b-a787-6bbc635faa47-km-25_1">
        <lane id=":4f8ce8a3-eeba-498b-a787-6bbc635faa47-km-25_0_0" index="0" allow="rail rail_electric" speed="110.00" length="0.10" shape="275.00,20.00 275.00,20.00"/>
    </edge>
    <edge id=":4f8ce8a3-eeba-498b-a787-6bbc635faa47-km-25_1" function="internal" bidi=":4f8ce8a3-eeba-498b-a787-6bbc635faa47-km-25_0">
        <lane id=":4f8ce8a3-eeba-498b-a787-6bbc635faa47-km-25_1_0" index="0" allow="rail rail_electric" speed="110.00" length="0.10" shape="275.00,20.00 275.00,20.00"/>
    </edge>
    <edge id=":61322_0" function="internal" bidi=":61322_3">
        <lane id=":61322_0_0" index="0" allow="rail rail_electric" speed="110.00" length="11.63" shape="301.81,20.00 298.65,20.31 296.22,21.12 293.85,22.29 290.89,23.64"/>
    </edge>
    <edge id=":61322_1" function="internal" bidi=":61322_2">
        <lane id=":61322_1_0" index="0" allow="rail rail_electric" speed="110.00" length="11.62" shape="301.81,20.00 290.19,20.00"/>
    </edge>
    <edge id=":61322_2" function="internal" bidi=":61322_1">
        <lane id=":61322_2_0" index="0" allow="rail rail_electric" speed="110.00" length="11.62" shape="290.19,20.00 301.81,20.00"/>
    </edge>
    <edge id=":61322_3" function="internal" bidi=":61322_0">
        <lane id=":61322_3_0" index="0" allow="rail rail_electric" speed="110.00" length="11.63" shape="290.89,23.64 293.85,22.29 296.22,21.12 298.65,20.31 301.81,20.00"/>
    </edge>
    <edge id=":637cdc98-0b49-4eff-bd2f-b9549becfc57-km-25_0" function="internal" bidi=":637cdc98-0b49-4eff-bd2f-b9549becfc57-km-25_1">
        <lane id=":637cdc98-0b49-4eff-bd2f-b9549becfc57-km-25_0_0" index="0" allow="rail rail_electric" speed="110.00" length="0.10" shape="25.00,10.00 25.00,10.00"/>
    </edge>
    <edge id=":637cdc98-0b49-4eff-bd2f-b9549becfc57-km-25_1" function="internal" bidi=":637cdc98-0b49-4eff-bd2f-b9549becfc57-km-25_0">
        <lane id=":637cdc98-0b49-4eff-bd2f-b9549becfc57-km-25_1_0" index="0" allow="rail rail_electric" speed="110.00" length="0.10" shape="25.00,10.00 25.00,10.00"/>
    </edge>
    <edge id=":65550_0" function="internal" bidi=":65550_1">
        <lane id=":65550_0_0" index="0" allow="rail rail_electric" speed="110.00" length="0.10" shape="250.00,20.00 250.00,20.00"/>
    </edge>
    <edge id=":65550_1" function="internal" bidi=":65550_0">
        <lane id=":65550_1_0" index="0" allow="rail rail_electric" speed="110.00" length="0.10" shape="250.00,20.00 250.00,20.00"/>
    </edge>
    <edge id=":6d449885-ff8d-4b6e-9b72-38530eb8f1ba-km-25_0" function="internal" bidi=":6d449885-ff8d-4b6e-9b72-38530eb8f1ba-km-25_1">
        <lane id=":6d449885-ff8d-4b6e-9b72-38530eb8f1ba-km-25_0_0" index="0" allow="rail rail_electric" speed="110.00" length="0.10" shape="125.00,10.00 125.00,10.00"/>
    </edge>
    <edge id=":6d449885-ff8d-4b6e-9b72-38530eb8f1ba-km-25_1" function="internal" bidi=":6d449885-ff8d-4b6e-9b72-38530eb8f1ba-km-25_0">
        <lane id=":6d449885-ff8d-4b6e-9b72-38530eb8f1ba-km-25_1_0" index="0" allow="rail rail_electric" speed="110.00" length="0.10" shape="125.00,10.00 125.00,10.00"/>
    </edge>
    <edge id=":73093_0" function="internal" bidi=":73093_3">
        <lane id=":73093_0_0" index="0" allow="rail rail_electric" speed="110.00" length="11.62" shape="101.81,10.00 90.19,10.00"/>
    </edge>
    <edge id=":73093_1" function="internal" bidi=":73093_2">
        <lane id=":73093_1_0" index="0" allow="rail rail_electric" speed="110.00" length="11.63" shape="101.81,10.00 98.65,9.69 96.22,8.88 93.85,7.71 90.89,6.36"/>
    </edge>
    <edge id=":73093_2" function="internal" bidi=":73093_1">
        <lane id=":73093_2_0" index="0" allow="rail rail_electric" speed="110.00" length="11.63" shape="90.89,6.36 93.85,7.71 96.22,8.88 98.65,9.69 101.81,10.00"/>
    </edge>
    <edge id=":73093_3" function="internal" bidi=":73093_0">
        <lane id=":73093_3_0" index="0" allow="rail rail_electric" speed="110.00" length="11.62" shape="90.19,10.00 101.81,10.00"/>
    </edge>
    <edge id=":851172f3-4321-412f-96e8-b992d129c244-km-25_0" function="internal" bidi=":851172f3-4321-412f-96e8-b992d129c244-km-25_1">
        <lane id=":851172f3-4321-412f-96e8-b992d129c244-km-25_0_0" index="0" allow="rail rail_electric" speed="110.00" length="0.61" shape="275.29,29.89 275.12,29.95 275.00,29.98 274.87,30.00 274.69,30.00"/>
    </edge>
    <edge id=":851172f3-4321-412f-96e8-b992d129c244-km-25_1" function="internal" bidi=":851172f3-4321-412f-96e8-b992d129c244-km-25_0">
        <lane id=":851172f3-4321-412f-96e8-b992d129c244-km-25_1_0" index="0" allow="rail rail_electric" speed="110.00" length="0.61" shape="274.69,30.00 274.87,30.00 275.00,29.98 275.12,29.95 275.29,29.89"/>
    </edge>
    <edge id=":8c7f3_0" function="internal">
        <lane id=":8c7f3_0_0" index="0" allow="rail rail_electric" speed="0.10" length="0.10" shape="0.00,10.00 0.00,10.00"/>
    </edge>
    <edge id=":aeebf46c-cdd8-48df-be4a-8fcd265e5339-km-25_0" function="internal" bidi=":aeebf46c-cdd8-48df-be4a-8fcd265e5339-km-25_1">
        <lane id=":aeebf46c-cdd8-48df-be4a-8fcd265e5339-km-25_0_0" index="0" allow="rail rail_electric" speed="110.00" length="0.10" shape="123.21,29.28 123.21,29.28"/>
    </edge>
    <edge id=":aeebf46c-cdd8-48df-be4a-8fcd265e5339-km-25_1" function="internal" bidi=":aeebf46c-cdd8-48df-be4a-8fcd265e5339-km-25_0">
        <lane id=":aeebf46c-cdd8-48df-be4a-8fcd265e5339-km-25_1_0" index="0" allow="rail rail_electric" speed="110.00" length="0.10" shape="123.21,29.28 123.21,29.28"/>
    </edge>
    <edge id=":c2569_0" function="internal" bidi=":c2569_3">
        <lane id=":c2569_0_0" index="0" allow="rail rail_electric" speed="110.00" length="11.63" shape="59.11,13.64 56.15,12.29 53.78,11.12 51.35,10.31 48.19,10.00"/>
    </edge>
    <edge id=":c2569_1" function="internal" bidi=":c2569_2">
        <lane id=":c2569_1_0" index="0" allow="rail rail_electric" speed="110.00" length="11.62" shape="59.81,10.00 48.19,10.00"/>
    </edge>
    <edge id=":c2569_2" function="internal" bidi=":c2569_1">
        <lane id=":c2569_2_0" index="0" allow="rail rail_electric" speed="110.00" length="11.62" shape="48.19,10.00 59.81,10.00"/>
    </edge>
    <edge id=":c2569_3" function="internal" bidi=":c2569_0">
        <lane id=":c2569_3_0" index="0" allow="rail rail_electric" speed="110.00" length="11.63" shape="48.19,10.00 51.35,10.31 53.78,11.12 56.15,12.29 59.11,13.64"/>
    </edge>
    <edge id=":ccc1c_0" function="internal" bidi=":ccc1c_1">
        <lane id=":ccc1c_0_0" index="0" allow="rail rail_electric" speed="110.00" length="0.10" shape="75.00,10.00 75.00,10.00"/>
    </edge>
    <edge id=":ccc1c_1" function="internal" bidi=":ccc1c_0">
        <lane id=":ccc1c_1_0" index="0" allow="rail rail_electric" speed="110.00" length="0.10" shape="75.00,10.00 75.00,10.00"/>
    </edge>
    <edge id=":d9205287-7ce7-45c9-8cb2-e2579327df3b-km-25_0" function="internal" bidi=":d9205287-7ce7-45c9-8cb2-e2579327df3b-km-25_1">
        <lane id=":d9205287-7ce7-45c9-8cb2-e2579327df3b-km-25_0_0" index="0" allow="rail rail_electric" speed="110.00" length="0.10" shape="125.00,20.00 125.00,20.00"/>
    </edge>
    <edge id=":d9205287-7ce7-45c9-8cb2-e2579327df3b-km-25_1" function="internal" bidi=":d9205287-7ce7-45c9-8cb2-e2579327df3b-km-25_0">
        <lane id=":d9205287-7ce7-45c9-8cb2-e2579327df3b-km-25_1_0" index="0" allow="rail rail_electric" speed="110.00" length="0.10" shape="125.00,20.00 125.00,20.00"/>
    </edge>

    <edge id="2f5fd-0" from="ccc1c" to="73093" priority="-1" spreadType="center" bidi="2f5fd-0-re">
        <lane id="2f5fd-0_0" index="0" allow="rail rail_electric" speed="110.00" length="15.19" shape="75.00,10.00 90.19,10.00"/>
    </edge>
    <edge id="2f5fd-0-re" from="73093" to="ccc1c" priority="-1" spreadType="center" bidi="2f5fd-0">
        <lane id="2f5fd-0-re_0" index="0" allow="rail rail_electric" speed="110.00" length="15.19" shape="90.19,10.00 75.00,10.00"/>
    </edge>
    <edge id="460b0-0" from="73093" to="3ca2dedd-2ffc-4b75-9083-3ab21f1460b0-km-25" priority="-1" spreadType="center" bidi="460b0-0-re">
        <lane id="460b0-0_0" index="0" allow="rail rail_electric" speed="110.00" length="15.19" shape="90.89,6.36 76.79,0.72"/>
    </edge>
    <edge id="460b0-0-re" from="3ca2dedd-2ffc-4b75-9083-3ab21f1460b0-km-25" to="73093" priority="-1" spreadType="center" bidi="460b0-0">
        <lane id="460b0-0-re_0" index="0" allow="rail rail_electric" speed="110.00" length="15.19" shape="76.79,0.72 90.89,6.36"/>
    </edge>
    <edge id="460b0-1" from="3ca2dedd-2ffc-4b75-9083-3ab21f1460b0-km-25" to="13bb4" priority="-1" spreadType="center" shape="76.79,0.72 75.00,0.00 0.00,0.00" bidi="460b0-1-re">
        <lane id="460b0-1_0" index="0" allow="rail rail_electric" speed="110.00" length="76.93" shape="76.79,0.72 75.00,0.00 0.00,0.00"/>
    </edge>
    <edge id="460b0-1-re" from="13bb4" to="3ca2dedd-2ffc-4b75-9083-3ab21f1460b0-km-25" priority="-1" spreadType="center" shape="0.00,0.00 75.00,0.00 76.79,0.72" bidi="460b0-1">
        <lane id="460b0-1-re_0" index="0" allow="rail rail_electric" speed="110.00" length="76.93" shape="0.00,0.00 75.00,0.00 76.79,0.72"/>
    </edge>
    <edge id="7df3b-0" from="3b2ee" to="d9205287-7ce7-45c9-8cb2-e2579327df3b-km-25" priority="-1" spreadType="center" bidi="7df3b-0-re">
        <lane id="7df3b-0_0" index="0" allow="rail rail_electric" speed="110.00" length="15.19" shape="109.81,20.00 125.00,20.00"/>
    </edge>
    <edge id="7df3b-0-re" from="d9205287-7ce7-45c9-8cb2-e2579327df3b-km-25" to="3b2ee" priority="-1" spreadType="center" bidi="7df3b-0">
        <lane id="7df3b-0-re_0" index="0" allow="rail rail_electric" speed="110.00" length="15.19" shape="125.00,20.00 109.81,20.00"/>
    </edge>
    <edge id="7df3b-1" from="d9205287-7ce7-45c9-8cb2-e2579327df3b-km-25" to="65550" priority="-1" spreadType="center" bidi="7df3b-1-re">
        <lane id="7df3b-1_0" index="0" allow="rail rail_electric" speed="110.00" length="125.00" shape="125.00,20.00 250.00,20.00"/>
    </edge>
    <edge id="7df3b-1-re" from="65550" to="d9205287-7ce7-45c9-8cb2-e2579327df3b-km-25" priority="-1" spreadType="center" bidi="7df3b-1">
        <lane id="7df3b-1-re_0" index="0" allow="rail rail_electric" speed="110.00" length="125.00" shape="250.00,20.00 125.00,20.00"/>
    </edge>
    <edge id="8f1ba-0" from="73093" to="6d449885-ff8d-4b6e-9b72-38530eb8f1ba-km-25" priority="-1" spreadType="center" bidi="8f1ba-0-re">
        <lane id="8f1ba-0_0" index="0" allow="rail rail_electric" speed="110.00" length="23.19" shape="101.81,10.00 125.00,10.00"/>
    </edge>
    <edge id="8f1ba-0-re" from="6d449885-ff8d-4b6e-9b72-38530eb8f1ba-km-25" to="73093" priority="-1" spreadType="center" bidi="8f1ba-0">
        <lane id="8f1ba-0-re_0" index="0" allow="rail rail_electric" speed="110.00" length="23.19" shape="125.00,10.00 101.81,10.00"/>
    </edge>
    <edge id="8f1ba-1" from="6d449885-ff8d-4b6e-9b72-38530eb8f1ba-km-25" to="3e5bb" priority="-1" spreadType="center" bidi="8f1ba-1-re">
        <lane id="8f1ba-1_0" index="0" allow="rail rail_electric" speed="110.00" length="125.00" shape="125.00,10.00 250.00,10.00"/>
    </edge>
    <edge id="8f1ba-1-re" from="3e5bb" to="6d449885-ff8d-4b6e-9b72-38530eb8f1ba-km-25" priority="-1" spreadType="center" bidi="8f1ba-1">
        <lane id="8f1ba-1-re_0" index="0" allow="rail rail_electric" speed="110.00" length="125.00" shape="250.00,10.00 125.00,10.00"/>
    </edge>
    <edge id="94139-0" from="c2569" to="ccc1c" priority="-1" spreadType="center" bidi="94139-0-re">
        <lane id="94139-0_0" index="0" allow="rail rail_electric" speed="110.00" length="15.19" shape="59.81,10.00 75.00,10.00"/>
    </edge>
    <edge id="94139-0-re" from="ccc1c" to="c2569" priority="-1" spreadType="center" bidi="94139-0">
        <lane id="94139-0-re_0" index="0" allow="rail rail_electric" speed="110.00" length="15.19" shape="75.00,10.00 59.81,10.00"/>
    </edge>
    <edge id="9c244-0" from="3cdb8" to="851172f3-4321-412f-96e8-b992d129c244-km-25" priority="-1" spreadType="center" bidi="9c244-0-re">
        <lane id="9c244-0_0" index="0" allow="rail rail_electric" speed="110.00" length="24.69" shape="250.00,30.00 274.69,30.00"/>
    </edge>
    <edge id="9c244-0-re" from="851172f3-4321-412f-96e8-b992d129c244-km-25" to="3cdb8" priority="-1" spreadType="center" bidi="9c244-0">
        <lane id="9c244-0-re_0" index="0" allow="rail rail_electric" speed="110.00" length="24.69" shape="274.69,30.00 250.00,30.00"/>
    </edge>
    <edge id="9c244-1" from="851172f3-4321-412f-96e8-b992d129c244-km-25" to="61322" priority="-1" spreadType="center" bidi="9c244-1-re">
        <lane id="9c244-1_0" index="0" allow="rail rail_electric" speed="110.00" length="16.81" shape="275.29,29.89 290.89,23.64"/>
    </edge>
    <edge id="9c244-1-re" from="61322" to="851172f3-4321-412f-96e8-b992d129c244-km-25" priority="-1" spreadType="center" bidi="9c244-1">
        <lane id="9c244-1-re_0" index="0" allow="rail rail_electric" speed="110.00" length="16.81" shape="290.89,23.64 275.29,29.89"/>
    </edge>
    <edge id="a3489-0" from="c2569" to="3b2ee" priority="-1" spreadType="center" shape="50.00,10.00 75.00,20.00 100.00,20.00" bidi="a3489-0-re">
        <lane id="a3489-0_0" index="0" allow="rail rail_electric" speed="110.00" length="40.31" shape="59.11,13.64 75.00,20.00 98.19,20.00"/>
    </edge>
    <edge id="a3489-0-re" from="3b2ee" to="c2569" priority="-1" spreadType="center" shape="100.00,20.00 75.00,20.00 50.00,10.00" bidi="a3489-0">
        <lane id="a3489-0-re_0" index="0" allow="rail rail_electric" speed="110.00" length="40.31" shape="98.19,20.00 75.00,20.00 59.11,13.64"/>
    </edge>
    <edge id="b2e35-0" from="61322" to="01ff1b08-fb63-457e-9823-c523938b2e35-km-25" priority="-1" spreadType="center" bidi="b2e35-0-re">
        <lane id="b2e35-0_0" index="0" allow="rail rail_electric" speed="110.00" length="23.19" shape="301.81,20.00 325.00,20.00"/>
    </edge>
    <edge id="b2e35-0-re" from="01ff1b08-fb63-457e-9823-c523938b2e35-km-25" to="61322" priority="-1" spreadType="center" bidi="b2e35-0">
        <lane id="b2e35-0-re_0" index="0" allow="rail rail_electric" speed="110.00" length="23.19" shape="325.00,20.00 301.81,20.00"/>
    </edge>
    <edge id="b2e35-1" from="01ff1b08-fb63-457e-9823-c523938b2e35-km-25" to="1a095" priority="-1" spreadType="center" bidi="b2e35-1-re">
        <lane id="b2e35-1_0" index="0" allow="rail rail_electric" speed="110.00" length="25.00" shape="325.00,20.00 350.00,20.00"/>
    </edge>
    <edge id="b2e35-1-re" from="1a095" to="01ff1b08-fb63-457e-9823-c523938b2e35-km-25" priority="-1" spreadType="center" bidi="b2e35-1">
        <lane id="b2e35-1-re_0" index="0" allow="rail rail_electric" speed="110.00" length="25.00" shape="350.00,20.00 325.00,20.00"/>
    </edge>
    <edge id="cfc57-0" from="8c7f3" to="637cdc98-0b49-4eff-bd2f-b9549becfc57-km-25" priority="-1" spreadType="center" bidi="cfc57-0-re">
        <lane id="cfc57-0_0" index="0" allow="rail rail_electric" speed="110.00" length="25.00" shape="0.00,10.00 25.00,10.00"/>
    </edge>
    <edge id="cfc57-0-re" from="637cdc98-0b49-4eff-bd2f-b9549becfc57-km-25" to="8c7f3" priority="-1" spreadType="center" bidi="cfc57-0">
        <lane id="cfc57-0-re_0" index="0" allow="rail rail_electric" speed="110.00" length="25.00" shape="25.00,10.00 0.00,10.00"/>
    </edge>
    <edge id="cfc57-1" from="637cdc98-0b49-4eff-bd2f-b9549becfc57-km-25" to="c2569" priority="-1" spreadType="center" bidi="cfc57-1-re">
        <lane id="cfc57-1_0" index="0" allow="rail rail_electric" speed="110.00" length="23.19" shape="25.00,10.00 48.19,10.00"/>
    </edge>
    <edge id="cfc57-1-re" from="c2569" to="637cdc98-0b49-4eff-bd2f-b9549becfc57-km-25" priority="-1" spreadType="center" bidi="cfc57-1">
        <lane id="cfc57-1-re_0" index="0" allow="rail rail_electric" speed="110.00" length="23.19" shape="48.19,10.00 25.00,10.00"/>
    </edge>
    <edge id="e5339-0" from="3b2ee" to="aeebf46c-cdd8-48df-be4a-8fcd265e5339-km-25" priority="-1" spreadType="center" bidi="e5339-0-re">
        <lane id="e5339-0_0" index="0" allow="rail rail_electric" speed="110.00" length="15.19" shape="109.11,23.64 123.21,29.28"/>
    </edge>
    <edge id="e5339-0-re" from="aeebf46c-cdd8-48df-be4a-8fcd265e5339-km-25" to="3b2ee" priority="-1" spreadType="center" bidi="e5339-0">
        <lane id="e5339-0-re_0" index="0" allow="rail rail_electric" speed="110.00" length="15.19" shape="123.21,29.28 109.11,23.64"/>
    </edge>
    <edge id="e5339-1" from="aeebf46c-cdd8-48df-be4a-8fcd265e5339-km-25" to="3cdb8" priority="-1" spreadType="center" shape="123.21,29.28 125.00,30.00 250.00,30.00" bidi="e5339-1-re">
        <lane id="e5339-1_0" index="0" allow="rail rail_electric" speed="110.00" length="126.93" shape="123.21,29.28 125.00,30.00 250.00,30.00"/>
    </edge>
    <edge id="e5339-1-re" from="3cdb8" to="aeebf46c-cdd8-48df-be4a-8fcd265e5339-km-25" priority="-1" spreadType="center" shape="250.00,30.00 125.00,30.00 123.21,29.28" bidi="e5339-1">
        <lane id="e5339-1-re_0" index="0" allow="rail rail_electric" speed="110.00" length="126.93" shape="250.00,30.00 125.00,30.00 123.21,29.28"/>
    </edge>
    <edge id="faa47-0" from="65550" to="4f8ce8a3-eeba-498b-a787-6bbc635faa47-km-25" priority="-1" spreadType="center" bidi="faa47-0-re">
        <lane id="faa47-0_0" index="0" allow="rail rail_electric" speed="110.00" length="25.00" shape="250.00,20.00 275.00,20.00"/>
    </edge>
    <edge id="faa47-0-re" from="4f8ce8a3-eeba-498b-a787-6bbc635faa47-km-25" to="65550" priority="-1" spreadType="center" bidi="faa47-0">
        <lane id="faa47-0-re_0" index="0" allow="rail rail_electric" speed="110.00" length="25.00" shape="275.00,20.00 250.00,20.00"/>
    </edge>
    <edge id="faa47-1" from="4f8ce8a3-eeba-498b-a787-6bbc635faa47-km-25" to="61322" priority="-1" spreadType="center" bidi="faa47-1-re">
        <lane id="faa47-1_0" index="0" allow="rail rail_electric" speed="110.00" length="15.19" shape="275.00,20.00 290.19,20.00"/>
    </edge>
    <edge id="faa47-1-re" from="61322" to="4f8ce8a3-eeba-498b-a787-6bbc635faa47-km-25" priority="-1" spreadType="center" bidi="faa47-1">
        <lane id="faa47-1-re_0" index="0" allow="rail rail_electric" speed="110.00" length="15.19" shape="290.19,20.00 275.00,20.00"/>
    </edge>

    <junction id="01ff1b08-fb63-457e-9823-c523938b2e35-km-25" type="rail_signal" x="325.00" y="20.00" incLanes="b2e35-1-re_0 b2e35-0_0" intLanes=":01ff1b08-fb63-457e-9823-c523938b2e35-km-25_0_0 :01ff1b08-fb63-457e-9823-c523938b2e35-km-25_1_0" shape="325.00,21.60 325.00,18.40 325.00,21.60">
        <request index="0" response="00" foes="00" cont="0"/>
        <request index="1" response="00" foes="00" cont="0"/>
    </junction>
    <junction id="13bb4" type="priority" x="0.00" y="0.00" incLanes="460b0-1_0" intLanes=":13bb4_0_0" shape="0.00,1.60 0.00,-1.60 0.00,1.60 0.00,-1.60">
        <request index="0" response="0" foes="0" cont="0"/>
    </junction>
    <junction id="1a095" type="priority" x="350.00" y="20.00" incLanes="b2e35-1_0" intLanes=":1a095_0_0" shape="350.00,18.40 350.00,21.60 350.00,18.40 350.00,21.60">
        <request index="0" response="0" foes="0" cont="0"/>
    </junction>
    <junction id="3b2ee" type="priority" x="100.00" y="20.00" incLanes="e5339-0-re_0 7df3b-0-re_0 a3489-0_0" intLanes=":3b2ee_0_0 :3b2ee_1_0 :3b2ee_2_0 :3b2ee_3_0" shape="108.51,25.13 109.70,22.16 109.81,21.60 109.81,18.40 98.19,18.40 98.19,21.60 100.50,21.72 102.17,22.06 103.50,22.60 104.80,23.31 106.37,24.16">
        <request index="0" response="0010" foes="0010" cont="0"/>
        <request index="1" response="0000" foes="1001" cont="0"/>
        <request index="2" response="0000" foes="0000" cont="0"/>
        <request index="3" response="0010" foes="0010" cont="0"/>
    </junction>
    <junction id="3ca2dedd-2ffc-4b75-9083-3ab21f1460b0-km-25" type="rail_signal" x="76.79" y="0.72" incLanes="460b0-0_0 460b0-1-re_0" intLanes=":3ca2dedd-2ffc-4b75-9083-3ab21f1460b0-km-25_0_0 :3ca2dedd-2ffc-4b75-9083-3ab21f1460b0-km-25_1_0" shape="76.19,2.20 77.38,-0.77 76.19,2.20">
        <request index="0" response="00" foes="00" cont="0"/>
        <request index="1" response="00" foes="00" cont="0"/>
    </junction>
    <junction id="3cdb8" type="priority" x="250.00" y="30.00" incLanes="9c244-0-re_0 e5339-1_0" intLanes=":3cdb8_0_0 :3cdb8_1_0" shape="250.00,31.60 250.00,28.40 250.00,31.60">
        <request index="0" response="00" foes="00" cont="0"/>
        <request index="1" response="00" foes="00" cont="0"/>
    </junction>
    <junction id="3e5bb" type="priority" x="250.00" y="10.00" incLanes="8f1ba-1_0" intLanes=":3e5bb_0_0" shape="250.00,8.40 250.00,11.60 250.00,8.40 250.00,11.60">
        <request index="0" response="0" foes="0" cont="0"/>
    </junction>
    <junction id="4f8ce8a3-eeba-498b-a787-6bbc635faa47-km-25" type="rail_signal" x="275.00" y="20.00" incLanes="faa47-1-re_0 faa47-0_0" intLanes=":4f8ce8a3-eeba-498b-a787-6bbc635faa47-km-25_0_0 :4f8ce8a3-eeba-498b-a787-6bbc635faa47-km-25_1_0" shape="275.00,21.60 275.00,18.40 275.00,21.60">
        <request index="0" response="00" foes="00" cont="0"/>
        <request index="1" response="00" foes="00" cont="0"/>
    </junction>
    <junction id="61322" type="priority" x="300.00" y="20.00" incLanes="b2e35-0-re_0 faa47-1_0 9c244-1_0" intLanes=":61322_0_0 :61322_1_0 :61322_2_0 :61322_3_0" shape="301.81,21.60 301.81,18.40 290.19,18.40 290.19,21.60 290.30,22.16 291.49,25.13 293.63,24.16 295.20,23.31 296.50,22.60 297.83,22.06 299.50,21.72">
        <request index="0" response="0000" foes="0000" cont="0"/>
        <request index="1" response="0000" foes="1000" cont="0"/>
        <request index="2" response="0000" foes="1000" cont="0"/>
        <request index="3" response="0110" foes="0110" cont="0"/>
    </junction>
    <junction id="637cdc98-0b49-4eff-bd2f-b9549becfc57-km-25" type="rail_signal" x="25.00" y="10.00" incLanes="cfc57-1-re_0 cfc57-0_0" intLanes=":637cdc98-0b49-4eff-bd2f-b9549becfc57-km-25_0_0 :637cdc98-0b49-4eff-bd2f-b9549becfc57-km-25_1_0" shape="25.00,11.60 25.00,8.40 25.00,11.60">
        <request index="0" response="00" foes="00" cont="0"/>
        <request index="1" response="00" foes="00" cont="0"/>
    </junction>
    <junction id="65550" type="priority" x="250.00" y="20.00" incLanes="faa47-0-re_0 7df3b-1_0" intLanes=":65550_0_0 :65550_1_0" shape="250.00,21.60 250.00,18.40 250.00,21.60">
        <request index="0" response="00" foes="00" cont="0"/>
        <request index="1" response="00" foes="00" cont="0"/>
    </junction>
    <junction id="6d449885-ff8d-4b6e-9b72-38530eb8f1ba-km-25" type="rail_signal" x="125.00" y="10.00" incLanes="8f1ba-1-re_0 8f1ba-0_0" intLanes=":6d449885-ff8d-4b6e-9b72-38530eb8f1ba-km-25_0_0 :6d449885-ff8d-4b6e-9b72-38530eb8f1ba-km-25_1_0" shape="125.00,11.60 125.00,8.40 125.00,11.60">
        <request index="0" response="00" foes="00" cont="0"/>
        <request index="1" response="00" foes="00" cont="0"/>
    </junction>
    <junction id="73093" type="priority" x="100.00" y="10.00" incLanes="8f1ba-0-re_0 460b0-0-re_0 2f5fd-0_0" intLanes=":73093_0_0 :73093_1_0 :73093_2_0 :73093_3_0" shape="101.81,11.60 101.81,8.40 99.50,8.28 97.83,7.94 96.50,7.40 95.20,6.69 93.63,5.84 91.49,4.87 90.30,7.84 90.19,8.40 90.19,11.60">
        <request index="0" response="0000" foes="0000" cont="0"/>
        <request index="1" response="1000" foes="1000" cont="0"/>
        <request index="2" response="1000" foes="1000" cont="0"/>
        <request index="3" response="0000" foes="0110" cont="0"/>
    </junction>
    <junction id="851172f3-4321-412f-96e8-b992d129c244-km-25" type="rail_signal" x="275.00" y="30.00" incLanes="9c244-1-re_0 9c244-0_0" intLanes=":851172f3-4321-412f-96e8-b992d129c244-km-25_0_0 :851172f3-4321-412f-96e8-b992d129c244-km-25_1_0" shape="275.88,31.37 274.69,28.40 274.69,31.60 275.14,31.59 275.30,31.57 275.46,31.53 275.64,31.47">
        <request index="0" response="00" foes="00" cont="0"/>
        <request index="1" response="00" foes="00" cont="0"/>
    </junction>
    <junction id="8c7f3" type="priority" x="0.00" y="10.00" incLanes="cfc57-0-re_0" intLanes=":8c7f3_0_0" shape="0.00,11.60 0.00,8.40 0.00,11.60 0.00,8.40">
        <request index="0" response="0" foes="0" cont="0"/>
    </junction>
    <junction id="aeebf46c-cdd8-48df-be4a-8fcd265e5339-km-25" type="rail_signal" x="123.21" y="29.28" incLanes="e5339-1-re_0 e5339-0_0" intLanes=":aeebf46c-cdd8-48df-be4a-8fcd265e5339-km-25_0_0 :aeebf46c-cdd8-48df-be4a-8fcd265e5339-km-25_1_0" shape="122.62,30.77 123.81,27.80 122.62,30.77">
        <request index="0" response="00" foes="00" cont="0"/>
        <request index="1" response="00" foes="00" cont="0"/>
    </junction>
    <junction id="c2569" type="priority" x="50.00" y="10.00" incLanes="a3489-0-re_0 94139-0-re_0 cfc57-1_0" intLanes=":c2569_0_0 :c2569_1_0 :c2569_2_0 :c2569_3_0" shape="58.51,15.13 59.70,12.16 59.81,11.60 59.81,8.40 48.19,8.40 48.19,11.60 50.50,11.72 52.17,12.06 53.50,12.60 54.80,13.31 56.37,14.16">
        <request index="0" response="0010" foes="0010" cont="0"/>
        <request index="1" response="0000" foes="1001" cont="0"/>
        <request index="2" response="0000" foes="0000" cont="0"/>
        <request index="3" response="0010" foes="0010" cont="0"/>
    </junction>
    <junction id="ccc1c" type="priority" x="75.00" y="10.00" incLanes="2f5fd-0-re_0 94139-0_0" intLanes=":ccc1c_0_0 :ccc1c_1_0" shape="75.00,11.60 75.00,8.40 75.00,11.60">
        <request index="0" response="00" foes="00" cont="0"/>
        <request index="1" response="00" foes="00" cont="0"/>
    </junction>