<connections>




<!-- Point 39034 0fd67bd3-88ab-405a-a28d-6defc0439034 -->
<connection from="29444-0" to="c6b16-0"/>
<connection from="29444-0" to="c6b16-0-re"/>
<connection from="29444-0-re" to="c6b16-0"/>
<connection from="29444-0-re" to="c6b16-0-re"/>
<connection from="a57e4-1" to="c6b16-0"/>
<connection from="a57e4-1" to="c6b16-0-re"/>
<connection from="a57e4-1-re" to="c6b16-0"/>
<connection from="a57e4-1-re" to="c6b16-0-re"/>
<connection from="c6b16-0" to="29444-0"/>
<connection from="c6b16-0" to="a57e4-1"/>
<connection from="c6b16-0" to="29444-0-re"/>
<connection from="c6b16-0" to="a57e4-1-re"/>
<connection from="c6b16-0-re" to="29444-0"/>
<connection from="c6b16-0-re" to="a57e4-1"/>
<connection from="c6b16-0-re" to="29444-0-re"/>
<connection from="c6b16-0-re" to="a57e4-1-re"/>
<!-- Point 15bae 98f9e7bc-9bb6-400d-aad6-a1e1fea15bae -->
<connection from="2b879-0" to="58ab8-0"/>
<connection from="2b879-0" to="58ab8-0-re"/>
<connection from="2b879-0-re" to="58ab8-0"/>
<connection from="2b879-0-re" to="58ab8-0-re"/>
<connection from="29444-0" to="58ab8-0"/>
<connection from="29444-0" to="58ab8-0-re"/>
<connection from="29444-0-re" to="58ab8-0"/>
<connection from="29444-0-re" to="58ab8-0-re"/>
<connection from="58ab8-0" to="2b879-0"/>
<connection from="58ab8-0" to="29444-0"/>
<connection from="58ab8-0" to="2b879-0-re"/>
<connection from="58ab8-0" to="29444-0-re"/>
<connection from="58ab8-0-re" to="2b879-0"/>
<connection from="58ab8-0-re" to="29444-0"/>
<connection from="58ab8-0-re" to="2b879-0-re"/>
<connection from="58ab8-0-re" to="29444-0-re"/>
<!-- Point cbe88 fd120f4d-f9de-4c74-a161-b6efdfecbe88 -->
<connection from="9bb42-0" to="c6b16-0"/>
<connection from="9bb42-0" to="c6b16-0-re"/>
<connection from="9bb42-0-re" to="c6b16-0"/>
<connection from="9bb42-0-re" to="c6b16-0-re"/>
<connection from="de525-0" to="c6b16-0"/>
<connection from="de525-0" to="c6b16-0-re"/>
<connection from="de525-0-re" to="c6b16-0"/>
<connection from="de525-0-re" to="c6b16-0-re"/>
<connection from="c6b16-0" to="9bb42-0"/>
<connection from="c6b16-0" to="de525-0"/>
<connection from="c6b16-0" to="9bb42-0-re"/>
<connection from="c6b16-0" to="de525-0-re"/>
<connection from="c6b16-0-re" to="9bb42-0"/>
<connection from="c6b16-0-re" to="de525-0"/>
<connection from="c6b16-0-re" to="9bb42-0-re"/>
<connection from="c6b16-0-re" to="de525-0-re"/>
<!-- Point 46c80 193b3656-dd50-49d8-b330-bd20cc346c80 -->
<connection from="0bf49-0" to="58ab8-2"/>
<connection from="0bf49-0" to="58ab8-2-re"/>
<connection from="0bf49-0-re" to="58ab8-2"/>
<connection from="0bf49-0-re" to="58ab8-2-re"/>
<connection from="2b879-2" to="58ab8-2"/>
<connection from="2b879-2" to="58ab8-2-re"/>
<connection from="2b879-2-re" to="58ab8-2"/>
<connection from="2b879-2-re" to="58ab8-2-re"/>
<connection from="58ab8-2" to="0bf49-0"/>
<connection from="58ab8-2" to="2b879-2"/>
<connection from="58ab8-2" to="0bf49-0-re"/>
<connection from="58ab8-2" to="2b879-2-re"/>
<connection from="58ab8-2-re" to="0bf49-0"/>
<connection from="58ab8-2-re" to="2b879-2"/>
<connection from="58ab8-2-re" to="0bf49-0-re"/>
<connection from="58ab8-2-re" to="2b879-2-re"/>
<!-- Signal cc797e7a-d36a-4b22-b7c9-510678ea57e4-km-25-in 24820a45-9f4d-4bbc-82d8-d3fcacb3a5bb -->
<connection from="a57e4-0" to="a57e4-1"/>
<connection from="a57e4-0" to="a57e4-1-re"/>
<connection from="a57e4-0-re" to="a57e4-1"/>
<connection from="a57e4-0-re" to="a57e4-1-re"/>
<connection from="a57e4-1" to="a57e4-0"/>
<connection from="a57e4-1" to="a57e4-0-re"/>
<connection from="a57e4-1-re" to="a57e4-0"/>
<connection from="a57e4-1-re" to="a57e4-0-re"/>
<!-- Signal f9b738b1-258c-457e-8734-86699efde525-km-25-gegen 31ff2a11-6c07-4920-a01c-9c8970b1e39a -->
<connection from="de525-0" to="de525-1"/>
<connection from="de525-0" to="de525-1-re"/>
<connection from="de525-0-re" to="de525-1"/>
<connection from="de525-0-re" to="de525-1-re"/>
<connection from="de525-1" to="de525-0"/>
<connection from="de525-1" to="de525-0-re"/>
<connection from="de525-1-re" to="de525-0"/>
<connection from="de525-1-re" to="de525-0-re"/>
<!-- Signal d58eb937-37bb-4f66-ae78-5e2ab079bb42-km-25-gegen 9beb9444-95fb-4756-9b19-bd767c805bb2 -->
<connection from="9bb42-0" to="9bb42-1"/>
<connection from="9bb42-0" to="9bb42-1-re"/>
<connection from="9bb42-0-re" to="9bb42-1"/>
<connection from="9bb42-0-re" to="9bb42-1-re"/>
<connection from="9bb42-1" to="9bb42-0"/>
<connection from="9bb42-1" to="9bb42-0-re"/>
<connection from="9bb42-1-re" to="9bb42-0"/>
<connection from="9bb42-1-re" to="9bb42-0-re"/>
<!-- Signal 74b5a339-3eb5-4853-9534-7a9cf7d58ab8-km-25-gegen 4267c0f2-c826-4986-81f2-b27254cc39a7 -->
<connection from="58ab8-0" to="58ab8-1"/>
<connection from="58ab8-0" to="58ab8-1-re"/>
<connection from="58ab8-0-re" to="58ab8-1"/>
<connection from="58ab8-0-re" to="58ab8-1-re"/>
<connection from="58ab8-1" to="58ab8-0"/>
<connection from="58ab8-1" to="58ab8-0-re"/>
<connection from="58ab8-1-re" to="58ab8-0"/>
<connection from="58ab8-1-re" to="58ab8-0-re"/>
<!-- Signal 74b5a339-3eb5-4853-9534-7a9cf7d58ab8-km-175-in 04e82a9a-208a-46f6-88cb-db866ea62c95 -->
<connection from="58ab8-1" to="58ab8-2"/>
<connection from="58ab8-1" to="58ab8-2-re"/>
<connection from="58ab8-1-re" to="58ab8-2"/>
<connection from="58ab8-1-re" to="58ab8-2-re"/>
<connection from="58ab8-2" to="58ab8-1"/>
<connection from="58ab8-2" to="58ab8-1-re"/>
<connection from="58ab8-2-re" to="58ab8-1"/>
<connection from="58ab8-2-re" to="58ab8-1-re"/>
<!-- Signal 91294974-73db-49b6-80fc-5b77ac32b879-km-25-gegen 5de84440-c02d-4ab7-ac0e-42a9e1a71188 -->
<connection from="2b879-0" to="2b879-1"/>
<connection from="2b879-0" to="2b879-1-re"/>
<connection from="2b879-0-re" to="2b879-1"/>
<connection from="2b879-0-re" to="2b879-1-re"/>
<connection from="2b879-1" to="2b879-0"/>
<connection from="2b879-1" to="2b879-0-re"/>
<connection from="2b879-1-re" to="2b879-0"/>
<connection from="2b879-1-re" to="2b879-0-re"/>
<!-- Signal 91294974-73db-49b6-80fc-5b77ac32b879-km-175-in 0ef3dfd6-fc8c-4717-bbeb-78abc2f69dda -->
<connection from="2b879-1" to="2b879-2"/>
<connection from="2b879-1" to="2b879-2-re"/>
<connection from="2b879-1-re" to="2b879-2"/>
<connection from="2b879-1-re" to="2b879-2-re"/>
<connection from="2b879-2" to="2b879-1"/>
<connection from="2b879-2" to="2b879-1-re"/>
<connection from="2b879-2-re" to="2b879-1"/>
<connection from="2b879-2-re" to="2b879-1-re"/>
<!-- Signal 6fe59d52-0da4-46fd-8deb-9e106dd0bf49-km-25-gegen ce1425ed-a1a0-4c65-8593-393a146ee13d -->
<connection from="0bf49-0" to="0bf49-1"/>
<connection from="0bf49-0" to="0bf49-1-re"/>
<connection from="0bf49-0-re" to="0bf49-1"/>
<connection from="0bf49-0-re" to="0bf49-1-re"/>
<connection from="0bf49-1" to="0bf49-0"/>
<connection from="0bf49-1" to="0bf49-0-re"/>
<connection from="0bf49-1-re" to="0bf49-0"/>
<connection from="0bf49-1-re" to="0bf49-0-re"/>
</connections>
