<edges>
<!-- Track 94a6f92a-0c2a-40dc-87d6-ccd0e55bf53d -->
<edge id="bf53d-0" from="fcb82" to="94a6f92a-0c2a-40dc-87d6-ccd0e55bf53d-km-25-in" shape="-4533770.0,-5625770.0 -4533745.0,-5625770.0" priority="-1" numLanes="1" speed="110.0" allow="rail rail_electric" spreadType="center" />
<edge id="bf53d-0-re" from="94a6f92a-0c2a-40dc-87d6-ccd0e55bf53d-km-25-in" to="fcb82" shape="-4533745.0,-5625770.0 -4533770.0,-5625770.0" priority="-1" numLanes="1" speed="110.0" allow="rail rail_electric" spreadType="center" />
<!-- Track 94a6f92a-0c2a-40dc-87d6-ccd0e55bf53d -->
<edge id="bf53d-1" from="94a6f92a-0c2a-40dc-87d6-ccd0e55bf53d-km-25-in" to="f7d38" shape="-4533745.0,-5625770.0 -4533720.0,-5625770.0" priority="-1" numLanes="1" speed="110.0" allow="rail rail_electric" spreadType="center" />
<edge id="bf53d-1-re" from="f7d38" to="94a6f92a-0c2a-40dc-87d6-ccd0e55bf53d-km-25-in" shape="-4533720.0,-5625770.0 -4533745.0,-5625770.0" priority="-1" numLanes="1" speed="110.0" allow="rail rail_electric" spreadType="center" />
<!-- Track d6b55ecc-d8f6-4bd7-beb9-1403807327be -->
<edge id="327be-0" from="f7d38" to="52ced" shape="-4533720.0,-5625770.0 -4533695.0,-5625770.0 -4533670.0,-5625770.0" priority="-1" numLanes="1" speed="110.0" allow="rail rail_electric" spreadType="center" />
<edge id="327be-0-re" from="52ced" to="f7d38" shape="-4533670.0,-5625770.0 -4533695.0,-5625770.0 -4533720.0,-5625770.0" priority="-1" numLanes="1" speed="110.0" allow="rail rail_electric" spreadType="center" />
<!-- Track bf05e3db-5b34-4e89-8406-31413fe9a917 -->
<edge id="9a917-0" from="f7d38" to="7448e" shape="-4533720.0,-5625770.0 -4533695.0,-5625760.0 -4533670.0,-5625760.0" priority="-1" numLanes="1" speed="110.0" allow="rail rail_electric" spreadType="center" />
<edge id="9a917-0-re" from="7448e" to="f7d38" shape="-4533670.0,-5625760.0 -4533695.0,-5625760.0 -4533720.0,-5625770.0" priority="-1" numLanes="1" speed="110.0" allow="rail rail_electric" spreadType="center" />
<!-- Track a51fad9c-2ac2-4f38-aae2-6eab45ae346e -->
<edge id="e346e-0" from="52ced" to="a51fad9c-2ac2-4f38-aae2-6eab45ae346e-km-25-gegen" shape="-4533670.0,-5625770.0 -4533693.211917272,-5625779.284766909" priority="-1" numLanes="1" speed="110.0" allow="rail rail_electric" spreadType="center" />
<edge id="e346e-0-re" from="a51fad9c-2ac2-4f38-aae2-6eab45ae346e-km-25-gegen" to="52ced" shape="-4533693.211917272,-5625779.284766909 -4533670.0,-5625770.0" priority="-1" numLanes="1" speed="110.0" allow="rail rail_electric" spreadType="center" />
<!-- Track a51fad9c-2ac2-4f38-aae2-6eab45ae346e -->
<edge id="e346e-1" from="a51fad9c-2ac2-4f38-aae2-6eab45ae346e-km-25-gegen" to="93b9b" shape="-4533693.211917272,-5625779.284766909 -4533695.0,-5625780.0 -4533770.0,-5625780.0" priority="-1" numLanes="1" speed="110.0" allow="rail rail_electric" spreadType="center" />
<edge id="e346e-1-re" from="93b9b" to="a51fad9c-2ac2-4f38-aae2-6eab45ae346e-km-25-gegen" shape="-4533770.0,-5625780.0 -4533695.0,-5625780.0 -4533693.211917272,-5625779.284766909" priority="-1" numLanes="1" speed="110.0" allow="rail rail_electric" spreadType="center" />
<!-- Track 64f673bc-7d9f-4091-9110-2128e0285d3c -->
<edge id="85d3c-0" from="52ced" to="64f673bc-7d9f-4091-9110-2128e0285d3c-km-25-gegen" shape="-4533670.0,-5625770.0 -4533645.0,-5625770.0" priority="-1" numLanes="1" speed="110.0" allow="rail rail_electric" spreadType="center" />
<edge id="85d3c-0-re" from="64f673bc-7d9f-4091-9110-2128e0285d3c-km-25-gegen" to="52ced" shape="-4533645.0,-5625770.0 -4533670.0,-5625770.0" priority="-1" numLanes="1" speed="110.0" allow="rail rail_electric" spreadType="center" />
<!-- Track 64f673bc-7d9f-4091-9110-2128e0285d3c -->
<edge id="85d3c-1" from="64f673bc-7d9f-4091-9110-2128e0285d3c-km-25-gegen" to="fb07c" shape="-4533645.0,-5625770.0 -4533520.0,-5625770.0" priority="-1" numLanes="1" speed="110.0" allow="rail rail_electric" spreadType="center" />
<edge id="85d3c-1-re" from="fb07c" to="64f673bc-7d9f-4091-9110-2128e0285d3c-km-25-gegen" shape="-4533520.0,-5625770.0 -4533645.0,-5625770.0" priority="-1" numLanes="1" speed="110.0" allow="rail rail_electric" spreadType="center" />
<!-- Track 61a1600e-997a-4c88-9ec0-89c53d884ef4 -->
<edge id="84ef4-0" from="7448e" to="61a1600e-997a-4c88-9ec0-89c53d884ef4-km-25-gegen" shape="-4533670.0,-5625760.0 -4533645.0,-5625760.0" priority="-1" numLanes="1" speed="110.0" allow="rail rail_electric" spreadType="center" />
<edge id="84ef4-0-re" from="61a1600e-997a-4c88-9ec0-89c53d884ef4-km-25-gegen" to="7448e" shape="-4533645.0,-5625760.0 -4533670.0,-5625760.0" priority="-1" numLanes="1" speed="110.0" allow="rail rail_electric" spreadType="center" />
<!-- Track 61a1600e-997a-4c88-9ec0-89c53d884ef4 -->
<edge id="84ef4-1" from="61a1600e-997a-4c88-9ec0-89c53d884ef4-km-25-gegen" to="61a1600e-997a-4c88-9ec0-89c53d884ef4-km-175-in" shape="-4533645.0,-5625760.0 -4533520.0,-5625760.0 -4533495.0,-5625760.0" priority="-1" numLanes="1" speed="110.0" allow="rail rail_electric" spreadType="center" />
<edge id="84ef4-1-re" from="61a1600e-997a-4c88-9ec0-89c53d884ef4-km-175-in" to="61a1600e-997a-4c88-9ec0-89c53d884ef4-km-25-gegen" shape="-4533495.0,-5625760.0 -4533520.0,-5625760.0 -4533645.0,-5625760.0" priority="-1" numLanes="1" speed="110.0" allow="rail rail_electric" spreadType="center" />
<!-- Track 61a1600e-997a-4c88-9ec0-89c53d884ef4 -->
<edge id="84ef4-2" from="61a1600e-997a-4c88-9ec0-89c53d884ef4-km-175-in" to="577c4" shape="-4533495.0,-5625760.0 -4533470.0,-5625760.0" priority="-1" numLanes="1" speed="110.0" allow="rail rail_electric" spreadType="center" />
<edge id="84ef4-2-re" from="577c4" to="61a1600e-997a-4c88-9ec0-89c53d884ef4-km-175-in" shape="-4533470.0,-5625760.0 -4533495.0,-5625760.0" priority="-1" numLanes="1" speed="110.0" allow="rail rail_electric" spreadType="center" />
<!-- Track 8710dd8c-f9cc-4674-9956-197809e8f9a9 -->
<edge id="8f9a9-0" from="7448e" to="8710dd8c-f9cc-4674-9956-197809e8f9a9-km-25-gegen" shape="-4533670.0,-5625760.0 -4533646.788082728,-5625750.715233091" priority="-1" numLanes="1" speed="110.0" allow="rail rail_electric" spreadType="center" />
<edge id="8f9a9-0-re" from="8710dd8c-f9cc-4674-9956-197809e8f9a9-km-25-gegen" to="7448e" shape="-4533646.788082728,-5625750.715233091 -4533670.0,-5625760.0" priority="-1" numLanes="1" speed="110.0" allow="rail rail_electric" spreadType="center" />
<!-- Track 8710dd8c-f9cc-4674-9956-197809e8f9a9 -->
<edge id="8f9a9-1" from="8710dd8c-f9cc-4674-9956-197809e8f9a9-km-25-gegen" to="8710dd8c-f9cc-4674-9956-197809e8f9a9-km-175-in" shape="-4533646.788082728,-5625750.715233091 -4533645.0,-5625750.0 -4533520.0,-5625750.0 -4533496.925824036,-5625750.0" priority="-1" numLanes="1" speed="110.0" allow="rail rail_electric" spreadType="center" />
<edge id="8f9a9-1-re" from="8710dd8c-f9cc-4674-9956-197809e8f9a9-km-175-in" to="8710dd8c-f9cc-4674-9956-197809e8f9a9-km-25-gegen" shape="-4533496.925824036,-5625750.0 -4533520.0,-5625750.0 -4533645.0,-5625750.0 -4533646.788082728,-5625750.715233091" priority="-1" numLanes="1" speed="110.0" allow="rail rail_electric" spreadType="center" />
<!-- Track 8710dd8c-f9cc-4674-9956-197809e8f9a9 -->
<edge id="8f9a9-2" from="8710dd8c-f9cc-4674-9956-197809e8f9a9-km-175-in" to="577c4" shape="-4533496.925824036,-5625750.0 -4533495.0,-5625750.0 -4533470.0,-5625760.0" priority="-1" numLanes="1" speed="110.0" allow="rail rail_electric" spreadType="center" />
<edge id="8f9a9-2-re" from="577c4" to="8710dd8c-f9cc-4674-9956-197809e8f9a9-km-175-in" shape="-4533470.0,-5625760.0 -4533495.0,-5625750.0 -4533496.925824036,-5625750.0" priority="-1" numLanes="1" speed="110.0" allow="rail rail_electric" spreadType="center" />
<!-- Track f3a18358-b059-4033-94cc-9c79ffa4f644 -->
<edge id="4f644-0" from="577c4" to="f3a18358-b059-4033-94cc-9c79ffa4f644-km-25-gegen" shape="-4533470.0,-5625760.0 -4533445.0,-5625760.0" priority="-1" numLanes="1" speed="110.0" allow="rail rail_electric" spreadType="center" />
<edge id="4f644-0-re" from="f3a18358-b059-4033-94cc-9c79ffa4f644-km-25-gegen" to="577c4" shape="-4533445.0,-5625760.0 -4533470.0,-5625760.0" priority="-1" numLanes="1" speed="110.0" allow="rail rail_electric" spreadType="center" />
<!-- Track f3a18358-b059-4033-94cc-9c79ffa4f644 -->
<edge id="4f644-1" from="f3a18358-b059-4033-94cc-9c79ffa4f644-km-25-gegen" to="6a62b" shape="-4533445.0,-5625760.0 -4533420.0,-5625760.0" priority="-1" numLanes="1" speed="110.0" allow="rail rail_electric" spreadType="center" />
<edge id="4f644-1-re" from="6a62b" to="f3a18358-b059-4033-94cc-9c79ffa4f644-km-25-gegen" shape="-4533420.0,-5625760.0 -4533445.0,-5625760.0" priority="-1" numLanes="1" speed="110.0" allow="rail rail_electric" spreadType="center" />
</edges>
