<connections>
<!-- Point 17635 f58cce5a-33ac-4cf1-be46-0435a6617635 -->
<connection from="3597f-0" to="d754f-0"/>
<connection from="3597f-0" to="d754f-0-re"/>
<connection from="3597f-0-re" to="d754f-0"/>
<connection from="3597f-0-re" to="d754f-0-re"/>
<connection from="b7acb-0" to="d754f-0"/>
<connection from="b7acb-0" to="d754f-0-re"/>
<connection from="b7acb-0-re" to="d754f-0"/>
<connection from="b7acb-0-re" to="d754f-0-re"/>
<connection from="d754f-0" to="3597f-0"/>
<connection from="d754f-0" to="b7acb-0"/>
<connection from="d754f-0" to="3597f-0-re"/>
<connection from="d754f-0" to="b7acb-0-re"/>
<connection from="d754f-0-re" to="3597f-0"/>
<connection from="d754f-0-re" to="b7acb-0"/>
<connection from="d754f-0-re" to="3597f-0-re"/>
<connection from="d754f-0-re" to="b7acb-0-re"/>
<!-- Point 93d41 49d37867-9a70-43ab-b2c3-0ac46a593d41 -->
<connection from="993ad-0" to="b7acb-0"/>
<connection from="993ad-0" to="b7acb-0-re"/>
<connection from="993ad-0-re" to="b7acb-0"/>
<connection from="993ad-0-re" to="b7acb-0-re"/>
<connection from="2c3ce-0" to="b7acb-0"/>
<connection from="2c3ce-0" to="b7acb-0-re"/>
<connection from="2c3ce-0-re" to="b7acb-0"/>
<connection from="2c3ce-0-re" to="b7acb-0-re"/>
<connection from="b7acb-0" to="993ad-0"/>
<connection from="b7acb-0" to="2c3ce-0"/>
<connection from="b7acb-0" to="993ad-0-re"/>
<connection from="b7acb-0" to="2c3ce-0-re"/>
<connection from="b7acb-0-re" to="993ad-0"/>
<connection from="b7acb-0-re" to="2c3ce-0"/>
<connection from="b7acb-0-re" to="993ad-0-re"/>
<connection from="b7acb-0-re" to="2c3ce-0-re"/>
<!-- Point 7e45f 3d011cea-8999-4072-beb9-9bf42317e45f -->
<connection from="993ad-0" to="078c5-0"/>
<connection from="993ad-0" to="078c5-0-re"/>
<connection from="993ad-0-re" to="078c5-0"/>
<connection from="993ad-0-re" to="078c5-0-re"/>
<connection from="db223-0" to="078c5-0"/>
<connection from="db223-0" to="078c5-0-re"/>
<connection from="db223-0-re" to="078c5-0"/>
<connection from="db223-0-re" to="078c5-0-re"/>
<connection from="078c5-0" to="993ad-0"/>
<connection from="078c5-0" to="db223-0"/>
<connection from="078c5-0" to="993ad-0-re"/>
<connection from="078c5-0" to="db223-0-re"/>
<connection from="078c5-0-re" to="993ad-0"/>
<connection from="078c5-0-re" to="db223-0"/>
<connection from="078c5-0-re" to="993ad-0-re"/>
<connection from="078c5-0-re" to="db223-0-re"/>
<!-- Point 65934 10a5a4be-5cd4-45d4-b5b9-dda9d7665934 -->
<connection from="078c5-0" to="d5f98-0"/>
<connection from="078c5-0" to="d5f98-0-re"/>
<connection from="078c5-0-re" to="d5f98-0"/>
<connection from="078c5-0-re" to="d5f98-0-re"/>
<connection from="7ea03-0" to="d5f98-0"/>
<connection from="7ea03-0" to="d5f98-0-re"/>
<connection from="7ea03-0-re" to="d5f98-0"/>
<connection from="7ea03-0-re" to="d5f98-0-re"/>
<connection from="d5f98-0" to="078c5-0"/>
<connection from="d5f98-0" to="7ea03-0"/>
<connection from="d5f98-0" to="078c5-0-re"/>
<connection from="d5f98-0" to="7ea03-0-re"/>
<connection from="d5f98-0-re" to="078c5-0"/>
<connection from="d5f98-0-re" to="7ea03-0"/>
<connection from="d5f98-0-re" to="078c5-0-re"/>
<connection from="d5f98-0-re" to="7ea03-0-re"/>
<!-- Point 05072 0b8eee0f-f486-4f02-b3e4-e7df9ae05072 -->
<connection from="99018-0" to="06b54-0"/>
<connection from="99018-0" to="06b54-0-re"/>
<connection from="99018-0-re" to="06b54-0"/>
<connection from="99018-0-re" to="06b54-0-re"/>
<connection from="afe7a-0" to="06b54-0"/>
<connection from="afe7a-0" to="06b54-0-re"/>
<connection from="afe7a-0-re" to="06b54-0"/>
<connection from="afe7a-0-re" to="06b54-0-re"/>
<connection from="06b54-0" to="99018-0"/>
<connection from="06b54-0" to="afe7a-0"/>
<connection from="06b54-0" to="99018-0-re"/>
<connection from="06b54-0" to="afe7a-0-re"/>
<connection from="06b54-0-re" to="99018-0"/>
<connection from="06b54-0-re" to="afe7a-0"/>
<connection from="06b54-0-re" to="99018-0-re"/>
<connection from="06b54-0-re" to="afe7a-0-re"/>
<!-- Point 564e2 11141740-4045-40df-a810-f2fb2d9564e2 -->
<connection from="35308-0" to="2430e-0"/>
<connection from="35308-0" to="2430e-0-re"/>
<connection from="35308-0-re" to="2430e-0"/>
<connection from="35308-0-re" to="2430e-0-re"/>
<connection from="06b54-0" to="2430e-0"/>
<connection from="06b54-0" to="2430e-0-re"/>
<connection from="06b54-0-re" to="2430e-0"/>
<connection from="06b54-0-re" to="2430e-0-re"/>
<connection from="2430e-0" to="35308-0"/>
<connection from="2430e-0" to="06b54-0"/>
<connection from="2430e-0" to="35308-0-re"/>
<connection from="2430e-0" to="06b54-0-re"/>
<connection from="2430e-0-re" to="35308-0"/>
<connection from="2430e-0-re" to="06b54-0"/>
<connection from="2430e-0-re" to="35308-0-re"/>
<connection from="2430e-0-re" to="06b54-0-re"/>
<!-- Point 57c01 390fdb42-fd37-4666-9545-f4e069957c01 -->
<connection from="4092f-0" to="c3f44-0"/>
<connection from="4092f-0" to="c3f44-0-re"/>
<connection from="4092f-0-re" to="c3f44-0"/>
<connection from="4092f-0-re" to="c3f44-0-re"/>
<connection from="d042b-0" to="c3f44-0"/>
<connection from="d042b-0" to="c3f44-0-re"/>
<connection from="d042b-0-re" to="c3f44-0"/>
<connection from="d042b-0-re" to="c3f44-0-re"/>
<connection from="c3f44-0" to="4092f-0"/>
<connection from="c3f44-0" to="d042b-0"/>
<connection from="c3f44-0" to="4092f-0-re"/>
<connection from="c3f44-0" to="d042b-0-re"/>
<connection from="c3f44-0-re" to="4092f-0"/>
<connection from="c3f44-0-re" to="d042b-0"/>
<connection from="c3f44-0-re" to="4092f-0-re"/>
<connection from="c3f44-0-re" to="d042b-0-re"/>
<!-- Point ee2ab 96cf5f1f-975f-4f5e-b0ef-c8be301ee2ab -->
<connection from="436c1-0" to="da4cf-0"/>
<connection from="436c1-0" to="da4cf-0-re"/>
<connection from="436c1-0-re" to="da4cf-0"/>
<connection from="436c1-0-re" to="da4cf-0-re"/>
<connection from="a3d64-0" to="da4cf-0"/>
<connection from="a3d64-0" to="da4cf-0-re"/>
<connection from="a3d64-0-re" to="da4cf-0"/>
<connection from="a3d64-0-re" to="da4cf-0-re"/>
<connection from="da4cf-0" to="436c1-0"/>
<connection from="da4cf-0" to="a3d64-0"/>
<connection from="da4cf-0" to="436c1-0-re"/>
<connection from="da4cf-0" to="a3d64-0-re"/>
<connection from="da4cf-0-re" to="436c1-0"/>
<connection from="da4cf-0-re" to="a3d64-0"/>
<connection from="da4cf-0-re" to="436c1-0-re"/>
<connection from="da4cf-0-re" to="a3d64-0-re"/>
<!-- Point 2b438 b4b2b450-a1ae-4107-a63a-c9793412b438 -->
<connection from="cb749-0" to="a3d64-0"/>
<connection from="cb749-0" to="a3d64-0-re"/>
<connection from="cb749-0-re" to="a3d64-0"/>
<connection from="cb749-0-re" to="a3d64-0-re"/>
<connection from="001e9-0" to="a3d64-0"/>
<connection from="001e9-0" to="a3d64-0-re"/>
<connection from="001e9-0-re" to="a3d64-0"/>
<connection from="001e9-0-re" to="a3d64-0-re"/>
<connection from="a3d64-0" to="cb749-0"/>
<connection from="a3d64-0" to="001e9-0"/>
<connection from="a3d64-0" to="cb749-0-re"/>
<connection from="a3d64-0" to="001e9-0-re"/>
<connection from="a3d64-0-re" to="cb749-0"/>
<connection from="a3d64-0-re" to="001e9-0"/>
<connection from="a3d64-0-re" to="cb749-0-re"/>
<connection from="a3d64-0-re" to="001e9-0-re"/>
<!-- Point fdef3 9fb33a8c-6825-46d8-95ad-ffa7791fdef3 -->
<connection from="a2a7b-0" to="96520-0"/>
<connection from="a2a7b-0" to="96520-0-re"/>
<connection from="a2a7b-0-re" to="96520-0"/>
<connection from="a2a7b-0-re" to="96520-0-re"/>
<connection from="001e9-0" to="96520-0"/>
<connection from="001e9-0" to="96520-0-re"/>
<connection from="001e9-0-re" to="96520-0"/>
<connection from="001e9-0-re" to="96520-0-re"/>
<connection from="96520-0" to="a2a7b-0"/>
<connection from="96520-0" to="001e9-0"/>
<connection from="96520-0" to="a2a7b-0-re"/>
<connection from="96520-0" to="001e9-0-re"/>
<connection from="96520-0-re" to="a2a7b-0"/>
<connection from="96520-0-re" to="001e9-0"/>
<connection from="96520-0-re" to="a2a7b-0-re"/>
<connection from="96520-0-re" to="001e9-0-re"/>
<!-- Point e52a9 dbec00a2-8b17-4a35-a23e-4904cece52a9 -->
<connection from="96520-0" to="e01ff-0"/>
<connection from="96520-0" to="e01ff-0-re"/>
<connection from="96520-0-re" to="e01ff-0"/>
<connection from="96520-0-re" to="e01ff-0-re"/>
<connection from="1c40e-0" to="e01ff-0"/>
<connection from="1c40e-0" to="e01ff-0-re"/>
<connection from="1c40e-0-re" to="e01ff-0"/>
<connection from="1c40e-0-re" to="e01ff-0-re"/>
<connection from="e01ff-0" to="96520-0"/>
<connection from="e01ff-0" to="1c40e-0"/>
<connection from="e01ff-0" to="96520-0-re"/>
<connection from="e01ff-0" to="1c40e-0-re"/>
<connection from="e01ff-0-re" to="96520-0"/>
<connection from="e01ff-0-re" to="1c40e-0"/>
<connection from="e01ff-0-re" to="96520-0-re"/>
<connection from="e01ff-0-re" to="1c40e-0-re"/>
<!-- Point cafed f4f570e6-2bb0-49b5-8e2a-6e57360cafed -->
<connection from="e01ff-0" to="c7809-0"/>
<connection from="e01ff-0" to="c7809-0-re"/>
<connection from="e01ff-0-re" to="c7809-0"/>
<connection from="e01ff-0-re" to="c7809-0-re"/>
<connection from="1f15b-0" to="c7809-0"/>
<connection from="1f15b-0" to="c7809-0-re"/>
<connection from="1f15b-0-re" to="c7809-0"/>
<connection from="1f15b-0-re" to="c7809-0-re"/>
<connection from="c7809-0" to="e01ff-0"/>
<connection from="c7809-0" to="1f15b-0"/>
<connection from="c7809-0" to="e01ff-0-re"/>
<connection from="c7809-0" to="1f15b-0-re"/>
<connection from="c7809-0-re" to="e01ff-0"/>
<connection from="c7809-0-re" to="1f15b-0"/>
<connection from="c7809-0-re" to="e01ff-0-re"/>
<connection from="c7809-0-re" to="1f15b-0-re"/>
<!-- Point 4c889 5d1d1b10-0034-4e7b-9f8a-2b9e4da4c889 -->
<connection from="8483f-0" to="c7809-0"/>
<connection from="8483f-0" to="c7809-0-re"/>
<connection from="8483f-0-re" to="c7809-0"/>
<connection from="8483f-0-re" to="c7809-0-re"/>
<connection from="54cc2-0" to="c7809-0"/>
<connection from="54cc2-0" to="c7809-0-re"/>
<connection from="54cc2-0-re" to="c7809-0"/>
<connection from="54cc2-0-re" to="c7809-0-re"/>
<connection from="c7809-0" to="8483f-0"/>
<connection from="c7809-0" to="54cc2-0"/>
<connection from="c7809-0" to="8483f-0-re"/>
<connection from="c7809-0" to="54cc2-0-re"/>
<connection from="c7809-0-re" to="8483f-0"/>
<connection from="c7809-0-re" to="54cc2-0"/>
<connection from="c7809-0-re" to="8483f-0-re"/>
<connection from="c7809-0-re" to="54cc2-0-re"/>
<!-- Point d053a c993a4b1-926b-4311-9188-3ae7773d053a -->
<connection from="ed63b-0" to="52ba1-0"/>
<connection from="ed63b-0" to="52ba1-0-re"/>
<connection from="ed63b-0-re" to="52ba1-0"/>
<connection from="ed63b-0-re" to="52ba1-0-re"/>
<connection from="54cc2-0" to="52ba1-0"/>
<connection from="54cc2-0" to="52ba1-0-re"/>
<connection from="54cc2-0-re" to="52ba1-0"/>
<connection from="54cc2-0-re" to="52ba1-0-re"/>
<connection from="52ba1-0" to="ed63b-0"/>
<connection from="52ba1-0" to="54cc2-0"/>
<connection from="52ba1-0" to="ed63b-0-re"/>
<connection from="52ba1-0" to="54cc2-0-re"/>
<connection from="52ba1-0-re" to="ed63b-0"/>
<connection from="52ba1-0-re" to="54cc2-0"/>
<connection from="52ba1-0-re" to="ed63b-0-re"/>
<connection from="52ba1-0-re" to="54cc2-0-re"/>

<!-- Point 597fd 465fd3b8-ff1a-4b02-ad2c-376afc0597fd -->
<connection from="de3a2-0" to="dac4f-0"/>
<connection from="de3a2-0" to="dac4f-0-re"/>
<connection from="de3a2-0-re" to="dac4f-0"/>
<connection from="de3a2-0-re" to="dac4f-0-re"/>
<connection from="70671-0" to="dac4f-0"/>
<connection from="70671-0" to="dac4f-0-re"/>
<connection from="70671-0-re" to="dac4f-0"/>
<connection from="70671-0-re" to="dac4f-0-re"/>
<connection from="dac4f-0" to="de3a2-0"/>
<connection from="dac4f-0" to="70671-0"/>
<connection from="dac4f-0" to="de3a2-0-re"/>
<connection from="dac4f-0" to="70671-0-re"/>
<connection from="dac4f-0-re" to="de3a2-0"/>
<connection from="dac4f-0-re" to="70671-0"/>
<connection from="dac4f-0-re" to="de3a2-0-re"/>
<connection from="dac4f-0-re" to="70671-0-re"/>
<!-- Point 60f4e 27c865fc-2e57-4dc8-a69e-102950860f4e -->
<connection from="de3a2-0" to="8da92-0"/>
<connection from="de3a2-0" to="8da92-0-re"/>
<connection from="de3a2-0-re" to="8da92-0"/>
<connection from="de3a2-0-re" to="8da92-0-re"/>
<connection from="9e395-0" to="8da92-0"/>
<connection from="9e395-0" to="8da92-0-re"/>
<connection from="9e395-0-re" to="8da92-0"/>
<connection from="9e395-0-re" to="8da92-0-re"/>
<connection from="8da92-0" to="de3a2-0"/>
<connection from="8da92-0" to="9e395-0"/>
<connection from="8da92-0" to="de3a2-0-re"/>
<connection from="8da92-0" to="9e395-0-re"/>
<connection from="8da92-0-re" to="de3a2-0"/>
<connection from="8da92-0-re" to="9e395-0"/>
<connection from="8da92-0-re" to="de3a2-0-re"/>
<connection from="8da92-0-re" to="9e395-0-re"/>
<!-- Point 4c4ff 727e60a1-9dd0-403a-8c75-5a583ef4c4ff -->
<connection from="350cb-0" to="8da92-0"/>
<connection from="350cb-0" to="8da92-0-re"/>
<connection from="350cb-0-re" to="8da92-0"/>
<connection from="350cb-0-re" to="8da92-0-re"/>
<connection from="a163c-0" to="8da92-0"/>
<connection from="a163c-0" to="8da92-0-re"/>
<connection from="a163c-0-re" to="8da92-0"/>
<connection from="a163c-0-re" to="8da92-0-re"/>
<connection from="8da92-0" to="350cb-0"/>
<connection from="8da92-0" to="a163c-0"/>
<connection from="8da92-0" to="350cb-0-re"/>
<connection from="8da92-0" to="a163c-0-re"/>
<connection from="8da92-0-re" to="350cb-0"/>
<connection from="8da92-0-re" to="a163c-0"/>
<connection from="8da92-0-re" to="350cb-0-re"/>
<connection from="8da92-0-re" to="a163c-0-re"/>
<!-- Point 73b2d 1f8e9b6d-1228-43d2-bd09-8831e2773b2d -->
<connection from="36255-0" to="60c58-0"/>
<connection from="36255-0" to="60c58-0-re"/>
<connection from="36255-0-re" to="60c58-0"/>
<connection from="36255-0-re" to="60c58-0-re"/>
<connection from="7990c-0" to="60c58-0"/>
<connection from="7990c-0" to="60c58-0-re"/>
<connection from="7990c-0-re" to="60c58-0"/>
<connection from="7990c-0-re" to="60c58-0-re"/>
<connection from="60c58-0" to="36255-0"/>
<connection from="60c58-0" to="7990c-0"/>
<connection from="60c58-0" to="36255-0-re"/>
<connection from="60c58-0" to="7990c-0-re"/>
<connection from="60c58-0-re" to="36255-0"/>
<connection from="60c58-0-re" to="7990c-0"/>
<connection from="60c58-0-re" to="36255-0-re"/>
<connection from="60c58-0-re" to="7990c-0-re"/>
<!-- Point 8043b 946a10b0-7baf-47eb-aef1-e8f50638043b -->
<connection from="015f4-0" to="2430e-0"/>
<connection from="015f4-0" to="2430e-0-re"/>
<connection from="015f4-0-re" to="2430e-0"/>
<connection from="015f4-0-re" to="2430e-0-re"/>
<connection from="ac3bc-0" to="2430e-0"/>
<connection from="ac3bc-0" to="2430e-0-re"/>
<connection from="ac3bc-0-re" to="2430e-0"/>
<connection from="ac3bc-0-re" to="2430e-0-re"/>
<connection from="2430e-0" to="015f4-0"/>
<connection from="2430e-0" to="ac3bc-0"/>
<connection from="2430e-0" to="015f4-0-re"/>
<connection from="2430e-0" to="ac3bc-0-re"/>
<connection from="2430e-0-re" to="015f4-0"/>
<connection from="2430e-0-re" to="ac3bc-0"/>
<connection from="2430e-0-re" to="015f4-0-re"/>
<connection from="2430e-0-re" to="ac3bc-0-re"/>
<!-- Point a4e09 ff77cb15-a227-4ae9-af33-2781029a4e09 -->
<connection from="83707-0" to="ed8f1-0"/>
<connection from="83707-0" to="ed8f1-0-re"/>
<connection from="83707-0-re" to="ed8f1-0"/>
<connection from="83707-0-re" to="ed8f1-0-re"/>
<connection from="015f4-0" to="ed8f1-0"/>
<connection from="015f4-0" to="ed8f1-0-re"/>
<connection from="015f4-0-re" to="ed8f1-0"/>
<connection from="015f4-0-re" to="ed8f1-0-re"/>
<connection from="ed8f1-0" to="83707-0"/>
<connection from="ed8f1-0" to="015f4-0"/>
<connection from="ed8f1-0" to="83707-0-re"/>
<connection from="ed8f1-0" to="015f4-0-re"/>
<connection from="ed8f1-0-re" to="83707-0"/>
<connection from="ed8f1-0-re" to="015f4-0"/>
<connection from="ed8f1-0-re" to="83707-0-re"/>
<connection from="ed8f1-0-re" to="015f4-0-re"/>
<!-- Point be282 e55770fb-7a59-49e3-b9de-2dbf511be282 -->
<connection from="be06c-0" to="ed8f1-0"/>
<connection from="be06c-0" to="ed8f1-0-re"/>
<connection from="be06c-0-re" to="ed8f1-0"/>
<connection from="be06c-0-re" to="ed8f1-0-re"/>
<connection from="f8718-0" to="ed8f1-0"/>
<connection from="f8718-0" to="ed8f1-0-re"/>
<connection from="f8718-0-re" to="ed8f1-0"/>
<connection from="f8718-0-re" to="ed8f1-0-re"/>
<connection from="ed8f1-0" to="be06c-0"/>
<connection from="ed8f1-0" to="f8718-0"/>
<connection from="ed8f1-0" to="be06c-0-re"/>
<connection from="ed8f1-0" to="f8718-0-re"/>
<connection from="ed8f1-0-re" to="be06c-0"/>
<connection from="ed8f1-0-re" to="f8718-0"/>
<connection from="ed8f1-0-re" to="be06c-0-re"/>
<connection from="ed8f1-0-re" to="f8718-0-re"/>
<!-- Point 1fa65 2bcd3ee7-f1cf-42c8-a2cc-68ca7371fa65 -->
<connection from="f8718-0" to="c3f44-0"/>
<connection from="f8718-0" to="c3f44-0-re"/>
<connection from="f8718-0-re" to="c3f44-0"/>
<connection from="f8718-0-re" to="c3f44-0-re"/>
<connection from="1952f-0" to="c3f44-0"/>
<connection from="1952f-0" to="c3f44-0-re"/>
<connection from="1952f-0-re" to="c3f44-0"/>
<connection from="1952f-0-re" to="c3f44-0-re"/>
<connection from="c3f44-0" to="f8718-0"/>
<connection from="c3f44-0" to="1952f-0"/>
<connection from="c3f44-0" to="f8718-0-re"/>
<connection from="c3f44-0" to="1952f-0-re"/>
<connection from="c3f44-0-re" to="f8718-0"/>
<connection from="c3f44-0-re" to="1952f-0"/>
<connection from="c3f44-0-re" to="f8718-0-re"/>
<connection from="c3f44-0-re" to="1952f-0-re"/>
<!-- Point 02560 ae598104-3385-4124-8a49-2f3c1cf02560 -->
<connection from="60c58-0" to="ef309-0"/>
<connection from="60c58-0" to="ef309-0-re"/>
<connection from="60c58-0-re" to="ef309-0"/>
<connection from="60c58-0-re" to="ef309-0-re"/>
<connection from="f5c08-0" to="ef309-0"/>
<connection from="f5c08-0" to="ef309-0-re"/>
<connection from="f5c08-0-re" to="ef309-0"/>
<connection from="f5c08-0-re" to="ef309-0-re"/>
<connection from="ef309-0" to="60c58-0"/>
<connection from="ef309-0" to="f5c08-0"/>
<connection from="ef309-0" to="60c58-0-re"/>
<connection from="ef309-0" to="f5c08-0-re"/>
<connection from="ef309-0-re" to="60c58-0"/>
<connection from="ef309-0-re" to="f5c08-0"/>
<connection from="ef309-0-re" to="60c58-0-re"/>
<connection from="ef309-0-re" to="f5c08-0-re"/>

<!-- Point 70cab 9d0249df-7f5f-4bd6-a128-218c79c70cab -->
<connection from="f17e1-0" to="90d6b-0"/>
<connection from="f17e1-0" to="90d6b-0-re"/>
<connection from="f17e1-0-re" to="90d6b-0"/>
<connection from="f17e1-0-re" to="90d6b-0-re"/>
<connection from="bae33-0" to="90d6b-0"/>
<connection from="bae33-0" to="90d6b-0-re"/>
<connection from="bae33-0-re" to="90d6b-0"/>
<connection from="bae33-0-re" to="90d6b-0-re"/>
<connection from="90d6b-0" to="f17e1-0"/>
<connection from="90d6b-0" to="bae33-0"/>
<connection from="90d6b-0" to="f17e1-0-re"/>
<connection from="90d6b-0" to="bae33-0-re"/>
<connection from="90d6b-0-re" to="f17e1-0"/>
<connection from="90d6b-0-re" to="bae33-0"/>
<connection from="90d6b-0-re" to="f17e1-0-re"/>
<connection from="90d6b-0-re" to="bae33-0-re"/>

<!-- Point 9abcf 7144d9a4-9bc6-419f-821d-d30fbc99abcf -->
<connection from="90d6b-0" to="6ac65-0"/>
<connection from="90d6b-0" to="6ac65-0-re"/>
<connection from="90d6b-0-re" to="6ac65-0"/>
<connection from="90d6b-0-re" to="6ac65-0-re"/>
<connection from="64f29-0" to="6ac65-0"/>
<connection from="64f29-0" to="6ac65-0-re"/>
<connection from="64f29-0-re" to="6ac65-0"/>
<connection from="64f29-0-re" to="6ac65-0-re"/>
<connection from="6ac65-0" to="90d6b-0"/>
<connection from="6ac65-0" to="64f29-0"/>
<connection from="6ac65-0" to="90d6b-0-re"/>
<connection from="6ac65-0" to="64f29-0-re"/>
<connection from="6ac65-0-re" to="90d6b-0"/>
<connection from="6ac65-0-re" to="64f29-0"/>
<connection from="6ac65-0-re" to="90d6b-0-re"/>
<connection from="6ac65-0-re" to="64f29-0-re"/>
<!-- Point 53ede ec9ef4fa-cb38-45b7-b449-66bbc4453ede -->
<connection from="dda67-0" to="2a8b6-0"/>
<connection from="dda67-0" to="2a8b6-0-re"/>
<connection from="dda67-0-re" to="2a8b6-0"/>
<connection from="dda67-0-re" to="2a8b6-0-re"/>
<connection from="6ac65-0" to="2a8b6-0"/>
<connection from="6ac65-0" to="2a8b6-0-re"/>
<connection from="6ac65-0-re" to="2a8b6-0"/>
<connection from="6ac65-0-re" to="2a8b6-0-re"/>
<connection from="2a8b6-0" to="dda67-0"/>
<connection from="2a8b6-0" to="6ac65-0"/>
<connection from="2a8b6-0" to="dda67-0-re"/>
<connection from="2a8b6-0" to="6ac65-0-re"/>
<connection from="2a8b6-0-re" to="dda67-0"/>
<connection from="2a8b6-0-re" to="6ac65-0"/>
<connection from="2a8b6-0-re" to="dda67-0-re"/>
<connection from="2a8b6-0-re" to="6ac65-0-re"/>
<!-- Point 87c7c 2b82a555-3243-44a3-b8a8-329d1b687c7c -->
<connection from="286fe-0" to="2a8b6-0"/>
<connection from="286fe-0" to="2a8b6-0-re"/>
<connection from="286fe-0-re" to="2a8b6-0"/>
<connection from="286fe-0-re" to="2a8b6-0-re"/>
<connection from="b575e-0" to="2a8b6-0"/>
<connection from="b575e-0" to="2a8b6-0-re"/>
<connection from="b575e-0-re" to="2a8b6-0"/>
<connection from="b575e-0-re" to="2a8b6-0-re"/>
<connection from="2a8b6-0" to="286fe-0"/>
<connection from="2a8b6-0" to="b575e-0"/>
<connection from="2a8b6-0" to="286fe-0-re"/>
<connection from="2a8b6-0" to="b575e-0-re"/>
<connection from="2a8b6-0-re" to="286fe-0"/>
<connection from="2a8b6-0-re" to="b575e-0"/>
<connection from="2a8b6-0-re" to="286fe-0-re"/>
<connection from="2a8b6-0-re" to="b575e-0-re"/>
<!-- Point 77251 c56bd169-b77a-4cf2-870c-6c9b6f577251 -->
<connection from="3cb19-0" to="39948-0"/>
<connection from="3cb19-0" to="39948-0-re"/>
<connection from="3cb19-0-re" to="39948-0"/>
<connection from="3cb19-0-re" to="39948-0-re"/>
<connection from="286fe-0" to="39948-0"/>
<connection from="286fe-0" to="39948-0-re"/>
<connection from="286fe-0-re" to="39948-0"/>
<connection from="286fe-0-re" to="39948-0-re"/>
<connection from="39948-0" to="3cb19-0"/>
<connection from="39948-0" to="286fe-0"/>
<connection from="39948-0" to="3cb19-0-re"/>
<connection from="39948-0" to="286fe-0-re"/>
<connection from="39948-0-re" to="3cb19-0"/>
<connection from="39948-0-re" to="286fe-0"/>
<connection from="39948-0-re" to="3cb19-0-re"/>
<connection from="39948-0-re" to="286fe-0-re"/>
<!-- Point fbb54 beb63b2c-61bd-4650-9437-8857738fbb54 -->
<connection from="c97f5-0" to="39948-0"/>
<connection from="c97f5-0" to="39948-0-re"/>
<connection from="c97f5-0-re" to="39948-0"/>
<connection from="c97f5-0-re" to="39948-0-re"/>
<connection from="111e5-0" to="39948-0"/>
<connection from="111e5-0" to="39948-0-re"/>
<connection from="111e5-0-re" to="39948-0"/>
<connection from="111e5-0-re" to="39948-0-re"/>
<connection from="39948-0" to="c97f5-0"/>
<connection from="39948-0" to="111e5-0"/>
<connection from="39948-0" to="c97f5-0-re"/>
<connection from="39948-0" to="111e5-0-re"/>
<connection from="39948-0-re" to="c97f5-0"/>
<connection from="39948-0-re" to="111e5-0"/>
<connection from="39948-0-re" to="c97f5-0-re"/>
<connection from="39948-0-re" to="111e5-0-re"/>
<!-- Point 7ef8d b77fcd44-1524-4bea-bd12-9a9e5ff7ef8d -->
<connection from="348bd-0" to="da170-0"/>
<connection from="348bd-0" to="da170-0-re"/>
<connection from="348bd-0-re" to="da170-0"/>
<connection from="348bd-0-re" to="da170-0-re"/>
<connection from="c97f5-0" to="da170-0"/>
<connection from="c97f5-0" to="da170-0-re"/>
<connection from="c97f5-0-re" to="da170-0"/>
<connection from="c97f5-0-re" to="da170-0-re"/>
<connection from="da170-0" to="348bd-0"/>
<connection from="da170-0" to="c97f5-0"/>
<connection from="da170-0" to="348bd-0-re"/>
<connection from="da170-0" to="c97f5-0-re"/>
<connection from="da170-0-re" to="348bd-0"/>
<connection from="da170-0-re" to="c97f5-0"/>
<connection from="da170-0-re" to="348bd-0-re"/>
<connection from="da170-0-re" to="c97f5-0-re"/>
<!-- Point 78c31 dfa1ba0e-5196-4b92-bc2d-fb239d778c31 -->
<connection from="da170-0" to="2958d-0"/>
<connection from="da170-0" to="2958d-0-re"/>
<connection from="da170-0-re" to="2958d-0"/>
<connection from="da170-0-re" to="2958d-0-re"/>
<connection from="5f764-0" to="2958d-0"/>
<connection from="5f764-0" to="2958d-0-re"/>
<connection from="5f764-0-re" to="2958d-0"/>
<connection from="5f764-0-re" to="2958d-0-re"/>
<connection from="2958d-0" to="da170-0"/>
<connection from="2958d-0" to="5f764-0"/>
<connection from="2958d-0" to="da170-0-re"/>
<connection from="2958d-0" to="5f764-0-re"/>
<connection from="2958d-0-re" to="da170-0"/>
<connection from="2958d-0-re" to="5f764-0"/>
<connection from="2958d-0-re" to="da170-0-re"/>
<connection from="2958d-0-re" to="5f764-0-re"/>
<!-- Point f6d87 6d0424b1-7ecb-4c0d-8490-e4e7676f6d87 -->
<connection from="14034-0" to="28bf5-0"/>
<connection from="14034-0" to="28bf5-0-re"/>
<connection from="14034-0-re" to="28bf5-0"/>
<connection from="14034-0-re" to="28bf5-0-re"/>
<connection from="b0453-0" to="28bf5-0"/>
<connection from="b0453-0" to="28bf5-0-re"/>
<connection from="b0453-0-re" to="28bf5-0"/>
<connection from="b0453-0-re" to="28bf5-0-re"/>
<connection from="28bf5-0" to="14034-0"/>
<connection from="28bf5-0" to="b0453-0"/>
<connection from="28bf5-0" to="14034-0-re"/>
<connection from="28bf5-0" to="b0453-0-re"/>
<connection from="28bf5-0-re" to="14034-0"/>
<connection from="28bf5-0-re" to="b0453-0"/>
<connection from="28bf5-0-re" to="14034-0-re"/>
<connection from="28bf5-0-re" to="b0453-0-re"/>
<!-- Point 7c971 10bd8377-bfd4-4f50-b3ca-83e71d87c971 -->
<connection from="14034-0" to="294de-0"/>
<connection from="14034-0" to="294de-0-re"/>
<connection from="14034-0-re" to="294de-0"/>
<connection from="14034-0-re" to="294de-0-re"/>
<connection from="bbbb2-0" to="294de-0"/>
<connection from="bbbb2-0" to="294de-0-re"/>
<connection from="bbbb2-0-re" to="294de-0"/>
<connection from="bbbb2-0-re" to="294de-0-re"/>
<connection from="294de-0" to="14034-0"/>
<connection from="294de-0" to="bbbb2-0"/>
<connection from="294de-0" to="14034-0-re"/>
<connection from="294de-0" to="bbbb2-0-re"/>
<connection from="294de-0-re" to="14034-0"/>
<connection from="294de-0-re" to="bbbb2-0"/>
<connection from="294de-0-re" to="14034-0-re"/>
<connection from="294de-0-re" to="bbbb2-0-re"/>
<!-- Point 92428 7c201bf1-b970-4dfa-bc66-1d8385e92428 -->
<connection from="be06c-0" to="294de-0"/>
<connection from="be06c-0" to="294de-0-re"/>
<connection from="be06c-0-re" to="294de-0"/>
<connection from="be06c-0-re" to="294de-0-re"/>
<connection from="b2788-0" to="294de-0"/>
<connection from="b2788-0" to="294de-0-re"/>
<connection from="b2788-0-re" to="294de-0"/>
<connection from="b2788-0-re" to="294de-0-re"/>
<connection from="294de-0" to="be06c-0"/>
<connection from="294de-0" to="b2788-0"/>
<connection from="294de-0" to="be06c-0-re"/>
<connection from="294de-0" to="b2788-0-re"/>
<connection from="294de-0-re" to="be06c-0"/>
<connection from="294de-0-re" to="b2788-0"/>
<connection from="294de-0-re" to="be06c-0-re"/>
<connection from="294de-0-re" to="b2788-0-re"/>
<!-- Point 3b2ad 7eebd416-0a26-48ae-a84e-54c13bf3b2ad -->
<connection from="64612-0" to="b2788-0"/>
<connection from="64612-0" to="b2788-0-re"/>
<connection from="64612-0-re" to="b2788-0"/>
<connection from="64612-0-re" to="b2788-0-re"/>
<connection from="13476-0" to="b2788-0"/>
<connection from="13476-0" to="b2788-0-re"/>
<connection from="13476-0-re" to="b2788-0"/>
<connection from="13476-0-re" to="b2788-0-re"/>
<connection from="b2788-0" to="64612-0"/>
<connection from="b2788-0" to="13476-0"/>
<connection from="b2788-0" to="64612-0-re"/>
<connection from="b2788-0" to="13476-0-re"/>
<connection from="b2788-0-re" to="64612-0"/>
<connection from="b2788-0-re" to="13476-0"/>
<connection from="b2788-0-re" to="64612-0-re"/>
<connection from="b2788-0-re" to="13476-0-re"/>
<!-- Point eea9b 2387f6f2-dc6e-4ec0-82cd-033f897eea9b -->
<connection from="3cb19-0" to="997fa-0"/>
<connection from="3cb19-0" to="997fa-0-re"/>
<connection from="3cb19-0-re" to="997fa-0"/>
<connection from="3cb19-0-re" to="997fa-0-re"/>
<connection from="15870-0" to="997fa-0"/>
<connection from="15870-0" to="997fa-0-re"/>
<connection from="15870-0-re" to="997fa-0"/>
<connection from="15870-0-re" to="997fa-0-re"/>
<connection from="997fa-0" to="3cb19-0"/>
<connection from="997fa-0" to="15870-0"/>
<connection from="997fa-0" to="3cb19-0-re"/>
<connection from="997fa-0" to="15870-0-re"/>
<connection from="997fa-0-re" to="3cb19-0"/>
<connection from="997fa-0-re" to="15870-0"/>
<connection from="997fa-0-re" to="3cb19-0-re"/>
<connection from="997fa-0-re" to="15870-0-re"/>
<!-- Point bea56 f657b7f6-ee5f-449b-957a-bf9a544bea56 -->
<connection from="cdf3a-0" to="997fa-0"/>
<connection from="cdf3a-0" to="997fa-0-re"/>
<connection from="cdf3a-0-re" to="997fa-0"/>
<connection from="cdf3a-0-re" to="997fa-0-re"/>
<connection from="b575e-0" to="997fa-0"/>
<connection from="b575e-0" to="997fa-0-re"/>
<connection from="b575e-0-re" to="997fa-0"/>
<connection from="b575e-0-re" to="997fa-0-re"/>
<connection from="997fa-0" to="cdf3a-0"/>
<connection from="997fa-0" to="b575e-0"/>
<connection from="997fa-0" to="cdf3a-0-re"/>
<connection from="997fa-0" to="b575e-0-re"/>
<connection from="997fa-0-re" to="cdf3a-0"/>
<connection from="997fa-0-re" to="b575e-0"/>
<connection from="997fa-0-re" to="cdf3a-0-re"/>
<connection from="997fa-0-re" to="b575e-0-re"/>
<!-- Point a8088 90db5a92-fe28-41e8-a0ef-d7b15bfa8088 -->
<connection from="c32ca-0" to="f0f65-0"/>
<connection from="c32ca-0" to="f0f65-0-re"/>
<connection from="c32ca-0-re" to="f0f65-0"/>
<connection from="c32ca-0-re" to="f0f65-0-re"/>
<connection from="23434-0" to="f0f65-0"/>
<connection from="23434-0" to="f0f65-0-re"/>
<connection from="23434-0-re" to="f0f65-0"/>
<connection from="23434-0-re" to="f0f65-0-re"/>
<connection from="f0f65-0" to="c32ca-0"/>
<connection from="f0f65-0" to="23434-0"/>
<connection from="f0f65-0" to="c32ca-0-re"/>
<connection from="f0f65-0" to="23434-0-re"/>
<connection from="f0f65-0-re" to="c32ca-0"/>
<connection from="f0f65-0-re" to="23434-0"/>
<connection from="f0f65-0-re" to="c32ca-0-re"/>
<connection from="f0f65-0-re" to="23434-0-re"/>
<!-- Point 8fdb8 b08cdcb1-166b-431a-8a24-47de0998fdb8 -->
<connection from="8665a-0" to="2c03e-0"/>
<connection from="8665a-0" to="2c03e-0-re"/>
<connection from="8665a-0-re" to="2c03e-0"/>
<connection from="8665a-0-re" to="2c03e-0-re"/>
<connection from="23434-0" to="2c03e-0"/>
<connection from="23434-0" to="2c03e-0-re"/>
<connection from="23434-0-re" to="2c03e-0"/>
<connection from="23434-0-re" to="2c03e-0-re"/>