<edges>
<!-- Track 590a5e5b-c7ad-4933-bbfc-0efe42dd754f -->
<edge id="d754f-0" from="17635" to="4126f" shape="-2502198.12597,3467432.6135300007 -2502326.87985,3467457.56728 -2502538.0035300003,3467500.4087799992" priority="-1" numLanes="1" speed="110.0" allow="rail rail_electric" spreadType="center" />
<edge id="d754f-0-re" from="4126f" to="17635" shape="-2502538.0035300003,3467500.4087799992 -2502326.87985,3467457.56728 -2502198.12597,3467432.6135300007" priority="-1" numLanes="1" speed="110.0" allow="rail rail_electric" spreadType="center" />
<!-- Track 3b2e6950-df18-45fb-b02e-be21ae7b7acb -->
<edge id="b7acb-0" from="17635" to="93d41" shape="-2502198.12597,3467432.6135300007 -2502011.2665299997,3467395.2331499998" priority="-1" numLanes="1" speed="110.0" allow="rail rail_electric" spreadType="center" />
<edge id="b7acb-0-re" from="93d41" to="17635" shape="-2502011.2665299997,3467395.2331499998 -2502198.12597,3467432.6135300007" priority="-1" numLanes="1" speed="110.0" allow="rail rail_electric" spreadType="center" />
<!-- Track 41655f44-1606-41ad-8d02-68ba8ca3597f -->
<edge id="3597f-0" from="17635" to="49658" shape="-2502198.12597,3467432.6135300007 -2501986.54402,3467407.1456000004 -2501941.3945899997,3467406.669229999 -2501900.14021,3467408.084829999 -2501830.26282,3467412.3299899995 -2501757.78116,3467419.529619999 -2501699.91196,3467418.6983400006 -2501637.2375,3467415.15701 -2501580.2459899997,3467407.526350001 -2501328.4789,3467357.3175099995" priority="-1" numLanes="1" speed="110.0" allow="rail rail_electric" spreadType="center" />
<edge id="3597f-0-re" from="49658" to="17635" shape="-2501328.4789,3467357.3175099995 -2501580.2459899997,3467407.526350001 -2501637.2375,3467415.15701 -2501699.91196,3467418.6983400006 -2501757.78116,3467419.529619999 -2501830.26282,3467412.3299899995 -2501900.14021,3467408.084829999 -2501941.3945899997,3467406.669229999 -2501986.54402,3467407.1456000004 -2502198.12597,3467432.6135300007" priority="-1" numLanes="1" speed="110.0" allow="rail rail_electric" spreadType="center" />
<!-- Track 334647b9-689c-4b6e-8982-5e7d9a4993ad -->
<edge id="993ad-0" from="93d41" to="7e45f" shape="-2502011.2665299997,3467395.2331499998 -2501902.1878899997,3467380.7301499993 -2501866.15293,3467378.21363 -2501673.07656,3467367.35386 -2501592.4169300003,3467359.1409399994 -2501551.4473,3467353.0741799995 -2501505.25312,3467345.7809800003 -2501206.74259,3467286.4816500004" priority="-1" numLanes="1" speed="110.0" allow="rail rail_electric" spreadType="center" />
<edge id="993ad-0-re" from="7e45f" to="93d41" shape="-2501206.74259,3467286.4816500004 -2501505.25312,3467345.7809800003 -2501551.4473,3467353.0741799995 -2501592.4169300003,3467359.1409399994 -2501673.07656,3467367.35386 -2501866.15293,3467378.21363 -2501902.1878899997,3467380.7301499993 -2502011.2665299997,3467395.2331499998" priority="-1" numLanes="1" speed="110.0" allow="rail rail_electric" spreadType="center" />
<!-- Track 485412f7-dd20-41b4-9a2e-09a60e22c3ce -->
<edge id="2c3ce-0" from="93d41" to="137f1" shape="-2502011.2665299997,3467395.2331499998 -2501807.9043300003,3467349.8108099997 -2501754.26764,3467336.96999" priority="-1" numLanes="1" speed="110.0" allow="rail rail_electric" spreadType="center" />
<edge id="2c3ce-0-re" from="137f1" to="93d41" shape="-2501754.26764,3467336.96999 -2501807.9043300003,3467349.8108099997 -2502011.2665299997,3467395.2331499998" priority="-1" numLanes="1" speed="110.0" allow="rail rail_electric" spreadType="center" />
<!-- Track e790eef6-bc8f-49c8-b833-4450bfb078c5 -->
<edge id="078c5-0" from="7e45f" to="65934" shape="-2501206.74259,3467286.4816500004 -2501015.8400600003,3467247.873880001" priority="-1" numLanes="1" speed="110.0" allow="rail rail_electric" spreadType="center" />
<edge id="078c5-0-re" from="65934" to="7e45f" shape="-2501015.8400600003,3467247.873880001 -2501206.74259,3467286.4816500004" priority="-1" numLanes="1" speed="110.0" allow="rail rail_electric" spreadType="center" />
<!-- Track 74774adc-0bf9-4456-b0df-83b3d5ddb223 -->
<edge id="db223-0" from="7e45f" to="ec0cc" shape="-2501206.74259,3467286.4816500004 -2501292.26427,3467298.73656 -2501351.82864,3467306.9248900004 -2501777.8962399997,3467364.0153800007" priority="-1" numLanes="1" speed="110.0" allow="rail rail_electric" spreadType="center" />
<edge id="db223-0-re" from="ec0cc" to="7e45f" shape="-2501777.8962399997,3467364.0153800007 -2501351.82864,3467306.9248900004 -2501292.26427,3467298.73656 -2501206.74259,3467286.4816500004" priority="-1" numLanes="1" speed="110.0" allow="rail rail_electric" spreadType="center" />
<!-- Track 48da56d5-ada5-4fc4-813f-01c2189d5f98 -->
<edge id="d5f98-0" from="65934" to="54478" shape="-2501015.8400600003,3467247.873880001 -2500319.68061,3467109.52558" priority="-1" numLanes="1" speed="110.0" allow="rail rail_electric" spreadType="center" />
<edge id="d5f98-0-re" from="54478" to="65934" shape="-2500319.68061,3467109.52558 -2501015.8400600003,3467247.873880001" priority="-1" numLanes="1" speed="110.0" allow="rail rail_electric" spreadType="center" />
<!-- Track 2b3178d8-84cb-45f4-a002-8adf8257ea03 -->
<edge id="7ea03-0" from="65934" to="a9daa" shape="-2501015.8400600003,3467247.873880001 -2501115.08361,3467272.0554600004 -2501236.73985,3467305.6705399994 -2501274.0125700003,3467312.661529999 -2501684.7521200003,3467394.7215800006" priority="-1" numLanes="1" speed="110.0" allow="rail rail_electric" spreadType="center" />
<edge id="7ea03-0-re" from="a9daa" to="65934" shape="-2501684.7521200003,3467394.7215800006 -2501274.0125700003,3467312.661529999 -2501236.73985,3467305.6705399994 -2501115.08361,3467272.0554600004 -2501015.8400600003,3467247.873880001" priority="-1" numLanes="1" speed="110.0" allow="rail rail_electric" spreadType="center" />
<!-- Track 2a29165d-48fe-4ece-8ee6-1d480ba06b54 -->
<edge id="06b54-0" from="05072" to="564e2" shape="-2498540.54764,3466763.4935800005 -2498402.6613499997,3466732.73161 -2498329.96588,3466713.1247499995 -2498268.72423,3466698.8420899995" priority="-1" numLanes="1" speed="110.0" allow="rail rail_electric" spreadType="center" />
<edge id="06b54-0-re" from="564e2" to="05072" shape="-2498268.72423,3466698.8420899995 -2498329.96588,3466713.1247499995 -2498402.6613499997,3466732.73161 -2498540.54764,3466763.4935800005" priority="-1" numLanes="1" speed="110.0" allow="rail rail_electric" spreadType="center" />
<!-- Track f9a53999-892b-4ec2-8204-3b9f11699018 -->
<edge id="99018-0" from="05072" to="2bb81" shape="-2498540.54764,3466763.4935800005 -2498576.53387,3466770.6508099996" priority="-1" numLanes="1" speed="110.0" allow="rail rail_electric" spreadType="center" />
<edge id="99018-0-re" from="2bb81" to="05072" shape="-2498576.53387,3466770.6508099996 -2498540.54764,3466763.4935800005" priority="-1" numLanes="1" speed="110.0" allow="rail rail_electric" spreadType="center" />
<!-- Track fa6f48d8-f074-4f9d-8262-d2ada5cafe7a -->
<edge id="afe7a-0" from="05072" to="f4e09" shape="-2498540.54764,3466763.4935800005 -2498252.68266,3466726.1891099997 -2498197.48094,3466721.89085 -2498139.02323,3466720.706219999 -2498060.3311900003,3466723.9792299997 -2497982.49469,3466733.01819 -2497909.9296500003,3466748.15646 -2497850.34973,3466766.0617699996 -2497809.3890500003,3466783.1006199997 -2497777.6173099997,3466798.02104 -2497757.65106,3466807.11544 -2497727.25933,3466826.2988600004 -2497702.75416,3466844.8849400003 -2497672.7243999997,3466868.5284599997 -2497638.29837,3466909.5678899996 -2497613.25141,3466948.8926599994 -2497593.60754,3466989.2724399995 -2497575.08128,3467046.9352100007 -2497569.9086800003,3467066.7781099994 -2497563.73441,3467105.96246 -2497557.50134,3467146.900459999 -2497556.05418,3467193.9233500008 -2497556.2335200002,3467236.8809600007 -2497560.39695,3467302.4759100005 -2497575.63252,3467387.626049999 -2497591.92547,3467452.675519999 -2497624.94031,3467543.71119 -2497663.94741,3467628.118450001 -2497712.75335,3467713.11197 -2497760.3523,3467784.1246099994 -2497825.04466,3467867.2288099993 -2497882.94791,3467933.29803 -2497954.1841700003,3468006.7475000005 -2498048.39064,3468092.79583 -2498147.8514,3468178.25674 -2498263.92411,3468270.6784099992 -2498342.1996999998,3468330.46768 -2498420.80864,3468386.5413499996 -2498652.22039,3468554.6521700006 -2499030.181,3468824.3028100003 -2499492.79879,3469158.6472699996 -2499607.48544,3469240.3513200004 -2500024.2620200003,3469539.477430001 -2500184.64418,3469655.1375200003 -2500305.05141,3469739.8357100002 -2500418.8024899997,3469824.2594099995 -2500574.48892,3469936.35939 -2500644.86252,3469986.7818100005 -2500688.49554,3470018.4375" priority="-1" numLanes="1" speed="110.0" allow="rail rail_electric" spreadType="center" />
<edge id="afe7a-0-re" from="f4e09" to="05072" shape="-2500688.49554,3470018.4375 -2500644.86252,3469986.7818100005 -2500574.48892,3469936.35939 -2500418.8024899997,3469824.2594099995 -2500305.05141,3469739.8357100002 -2500184.64418,3469655.1375200003 -2500024.2620200003,3469539.477430001 -2499607.48544,3469240.3513200004 -2499492.79879,3469158.6472699996 -2499030.181,3468824.3028100003 -2498652.22039,3468554.6521700006 -2498420.80864,3468386.5413499996 -2498342.1996999998,3468330.46768 -2498263.92411,3468270.6784099992 -2498147.8514,3468178.25674 -2498048.39064,3468092.79583 -2497954.1841700003,3468006.7475000005 -2497882.94791,3467933.29803 -2497825.04466,3467867.2288099993 -2497760.3523,3467784.1246099994 -2497712.75335,3467713.11197 -2497663.94741,3467628.118450001 -2497624.94031,3467543.71119 -2497591.92547,3467452.675519999 -2497575.63252,3467387.626049999 -2497560.39695,3467302.4759100005 -2497556.2335200002,3467236.8809600007 -2497556.05418,3467193.9233500008 -2497557.50134,3467146.900459999 -2497563.73441,3467105.96246 -2497569.9086800003,3467066.7781099994 -2497575.08128,3467046.9352100007 -2497593.60754,3466989.2724399995 -2497613.25141,3466948.8926599994 -2497638.29837,3466909.5678899996 -2497672.7243999997,3466868.5284599997 -2497702.75416,3466844.8849400003 -2497727.25933,3466826.2988600004 -2497757.65106,3466807.11544 -2497777.6173099997,3466798.02104 -2497809.3890500003,3466783.1006199997 -2497850.34973,3466766.0617699996 -2497909.9296500003,3466748.15646 -2497982.49469,3466733.01819 -2498060.3311900003,3466723.9792299997 -2498139.02323,3466720.706219999 -2498197.48094,3466721.89085 -2498252.68266,3466726.1891099997 -2498540.54764,3466763.4935800005" priority="-1" numLanes="1" speed="110.0" allow="rail rail_electric" spreadType="center" />
<!-- Track 66720e00-31ec-4d1e-8670-5c1975d35308 -->
<edge id="35308-0" from="564e2" to="ee9e1" shape="-2498268.72423,3466698.8420899995 -2498747.89618,3466795.468219999" priority="-1" numLanes="1" speed="110.0" allow="rail rail_electric" spreadType="center" />
<edge id="35308-0-re" from="ee9e1" to="564e2" shape="-2498747.89618,3466795.468219999 -2498268.72423,3466698.8420899995" priority="-1" numLanes="1" speed="110.0" allow="rail rail_electric" spreadType="center" />
<!-- Track 98b92454-8040-43bf-8626-696ab5e2430e -->
<edge id="2430e-0" from="564e2" to="8043b" shape="-2498268.72423,3466698.8420899995 -2497683.84035,3466580.68341 -2497616.70742,3466562.6213700008 -2497555.57539,3466541.44915 -2497493.5793000003,3466516.0916099995 -2497432.28336,3466486.141829999 -2497376.3927100003,3466452.90364 -2497326.80472,3466420.47088 -2497278.2940499997,3466378.9560199995 -2497243.99343,3466345.50536 -2497199.77704,3466293.87476 -2497166.09967,3466237.4059999995 -2497145.7740700003,3466189.32962 -2497129.6652800003,3466136.54428 -2497120.9402799997,3466053.3049500007 -2497107.6139,3465873.5539800003 -2497105.27989,3465831.8552 -2497092.47124,3465670.9046800006 -2497083.5450299997,3465548.59633" priority="-1" numLanes="1" speed="110.0" allow="rail rail_electric" spreadType="center" />
<edge id="2430e-0-re" from="8043b" to="564e2" shape="-2497083.5450299997,3465548.59633 -2497092.47124,3465670.9046800006 -2497105.27989,3465831.8552 -2497107.6139,3465873.5539800003 -2497120.9402799997,3466053.3049500007 -2497129.6652800003,3466136.54428 -2497145.7740700003,3466189.32962 -2497166.09967,3466237.4059999995 -2497199.77704,3466293.87476 -2497243.99343,3466345.50536 -2497278.2940499997,3466378.9560199995 -2497326.80472,3466420.47088 -2497376.3927100003,3466452.90364 -2497432.28336,3466486.141829999 -2497493.5793000003,3466516.0916099995 -2497555.57539,3466541.44915 -2497616.70742,3466562.6213700008 -2497683.84035,3466580.68341 -2498268.72423,3466698.8420899995" priority="-1" numLanes="1" speed="110.0" allow="rail rail_electric" spreadType="center" />
<!-- Track 068ac555-d078-4532-9a3a-399f5eb4092f -->
<edge id="4092f-0" from="57c01" to="a6847" shape="-2497040.4622299997,3464885.77458 -2497015.99143,3464028.421530001 -2497013.97126,3463976.808390001 -2497009.42261,3463938.33306 -2497000.0510400003,3463878.5135699995 -2496980.11027,3463796.085000001 -2496942.81543,3463687.8461499996 -2496891.7515700003,3463554.4648199994 -2496594.61733,3462763.889389999 -2496506.79474,3462530.2199099995 -2496450.0170400003,3462387.64068 -2496394.26611,3462244.6163500007 -2496373.25611,3462190.691919999 -2496357.6298599998,3462153.2097500004 -2496304.40159,3462020.9167100005" priority="-1" numLanes="1" speed="110.0" allow="rail rail_electric" spreadType="center" />
<edge id="4092f-0-re" from="a6847" to="57c01" shape="-2496304.40159,3462020.9167100005 -2496357.6298599998,3462153.2097500004 -2496373.25611,3462190.691919999 -2496394.26611,3462244.6163500007 -2496450.0170400003,3462387.64068 -2496506.79474,3462530.2199099995 -2496594.61733,3462763.889389999 -2496891.7515700003,3463554.4648199994 -2496942.81543,3463687.8461499996 -2496980.11027,3463796.085000001 -2497000.0510400003,3463878.5135699995 -2497009.42261,3463938.33306 -2497013.97126,3463976.808390001 -2497015.99143,3464028.421530001 -2497040.4622299997,3464885.77458" priority="-1" numLanes="1" speed="110.0" allow="rail rail_electric" spreadType="center" />
<!-- Track f0853641-2ecc-416f-872c-21d9feac3f44 -->
<edge id="c3f44-0" from="57c01" to="1fa65" shape="-2497040.4622299997,3464885.77458 -2497041.4403999997,3464952.8688200004" priority="-1" numLanes="1" speed="110.0" allow="rail rail_electric" spreadType="center" />
<edge id="c3f44-0-re" from="1fa65" to="57c01" shape="-2497041.4403999997,3464952.8688200004 -2497040.4622299997,3464885.77458" priority="-1" numLanes="1" speed="110.0" allow="rail rail_electric" spreadType="center" />
<!-- Track 6dbe7f1f-8858-47f9-809d-17ba0a7d042b -->
<edge id="d042b-0" from="57c01" to="4bec5" shape="-2497040.4622299997,3464885.77458 -2497046.63124,3464821.1730000004 -2497048.08977,3464789.196489999" priority="-1" numLanes="1" speed="110.0" allow="rail rail_electric" spreadType="center" />
<edge id="d042b-0-re" from="4bec5" to="57c01" shape="-2497048.08977,3464789.196489999 -2497046.63124,3464821.1730000004 -2497040.4622299997,3464885.77458" priority="-1" numLanes="1" speed="110.0" allow="rail rail_electric" spreadType="center" />
<!-- Track 1c536a26-c3d5-489a-99bf-74a0665a3d64 -->
<edge id="a3d64-0" from="ee2ab" to="2b438" shape="-2496162.36355,3464067.9474400003 -2496131.91341,3464011.2853200007" priority="-1" numLanes="1" speed="110.0" allow="rail rail_electric" spreadType="center" />
<edge id="a3d64-0-re" from="2b438" to="ee2ab" shape="-2496131.91341,3464011.2853200007 -2496162.36355,3464067.9474400003" priority="-1" numLanes="1" speed="110.0" allow="rail rail_electric" spreadType="center" />
<!-- Track f19e1e29-5a7a-4728-891d-c122ea9436c1 -->
<edge id="436c1-0" from="ee2ab" to="07b45" shape="-2496162.36355,3464067.9474400003 -2496089.0351799997,3463971.1033299994" priority="-1" numLanes="1" speed="110.0" allow="rail rail_electric" spreadType="center" />
<edge id="436c1-0-re" from="07b45" to="ee2ab" shape="-2496089.0351799997,3463971.1033299994 -2496162.36355,3464067.9474400003" priority="-1" numLanes="1" speed="110.0" allow="rail rail_electric" spreadType="center" />
<!-- Track 0215074d-830c-454b-9996-2bebbcfda4cf -->
<edge id="da4cf-0" from="ee2ab" to="07bf0" shape="-2496162.36355,3464067.9474400003 -2496199.62101,3464133.6441600006 -2496271.1276000002,3464260.7358800005" priority="-1" numLanes="1" speed="110.0" allow="rail rail_electric" spreadType="center" />
<edge id="da4cf-0-re" from="07bf0" to="ee2ab" shape="-2496271.1276000002,3464260.7358800005 -2496199.62101,3464133.6441600006 -2496162.36355,3464067.9474400003" priority="-1" numLanes="1" speed="110.0" allow="rail rail_electric" spreadType="center" />
<!-- Track 8718f21e-bc5e-49fd-9478-93b788a001e9 -->
<edge id="001e9-0" from="2b438" to="fdef3" shape="-2496131.91341,3464011.2853200007 -2495593.77887,3463048.5656199995" priority="-1" numLanes="1" speed="110.0" allow="rail rail_electric" spreadType="center" />
<edge id="001e9-0-re" from="fdef3" to="2b438" shape="-2495593.77887,3463048.5656199995 -2496131.91341,3464011.2853200007" priority="-1" numLanes="1" speed="110.0" allow="rail rail_electric" spreadType="center" />
<!-- Track 26b492a6-b119-4f45-9a09-d9f8ca9cb749 -->
<edge id="cb749-0" from="2b438" to="ea0b2" shape="-2496131.91341,3464011.2853200007 -2496096.6506000003,3463962.0940799993" priority="-1" numLanes="1" speed="110.0" allow="rail rail_electric" spreadType="center" />
<edge id="cb749-0-re" from="ea0b2" to="2b438" shape="-2496096.6506000003,3463962.0940799993 -2496131.91341,3464011.2853200007" priority="-1" numLanes="1" speed="110.0" allow="rail rail_electric" spreadType="center" />
<!-- Track 6922e1dd-fbb6-4aab-a25d-708b74196520 -->
<edge id="96520-0" from="fdef3" to="e52a9" shape="-2495593.77887,3463048.5656199995 -2495572.8213400003,3463024.2260299996" priority="-1" numLanes="1" speed="110.0" allow="rail rail_electric" spreadType="center" />
<edge id="96520-0-re" from="e52a9" to="fdef3" shape="-2495572.8213400003,3463024.2260299996 -2495593.77887,3463048.5656199995" priority="-1" numLanes="1" speed="110.0" allow="rail rail_electric" spreadType="center" />
<!-- Track 00adfd00-3c9e-4bc5-938a-172b6f0a2a7b -->
<edge id="a2a7b-0" from="fdef3" to="50785" shape="-2495593.77887,3463048.5656199995 -2495643.0004000003,3463115.443050001" priority="-1" numLanes="1" speed="110.0" allow="rail rail_electric" spreadType="center" />
<edge id="a2a7b-0-re" from="50785" to="fdef3" shape="-2495643.0004000003,3463115.443050001 -2495593.77887,3463048.5656199995" priority="-1" numLanes="1" speed="110.0" allow="rail rail_electric" spreadType="center" />
<!-- Track 4f8206a9-27dc-48f0-8dbc-7f692b4e01ff -->
<edge id="e01ff-0" from="e52a9" to="cafed" shape="-2495572.8213400003,3463024.2260299996 -2495551.4765999997,3462986.0530600008" priority="-1" numLanes="1" speed="110.0" allow="rail rail_electric" spreadType="center" />
<edge id="e01ff-0-re" from="cafed" to="e52a9" shape="-2495551.4765999997,3462986.0530600008 -2495572.8213400003,3463024.2260299996" priority="-1" numLanes="1" speed="110.0" allow="rail rail_electric" spreadType="center" />
<!-- Track bdefd220-f6de-4ffd-8e7d-72d94301c40e -->
<edge id="1c40e-0" from="e52a9" to="ea0b2" shape="-2495572.8213400003,3463024.2260299996 -2496060.75423,3463900.6843599994 -2496096.6506000003,3463962.0940799993" priority="-1" numLanes="1" speed="110.0" allow="rail rail_electric" spreadType="center" />
<edge id="1c40e-0-re" from="ea0b2" to="e52a9" shape="-2496096.6506000003,3463962.0940799993 -2496060.75423,3463900.6843599994 -2495572.8213400003,3463024.2260299996" priority="-1" numLanes="1" speed="110.0" allow="rail rail_electric" spreadType="center" />
<!-- Track 6596b01c-7c22-4fc8-a3cd-3bcb416c7809 -->
<edge id="c7809-0" from="cafed" to="4c889" shape="-2495551.4765999997,3462986.0530600008 -2495336.3058,3462600.37651 -2495318.0454,3462566.56484" priority="-1" numLanes="1" speed="110.0" allow="rail rail_electric" spreadType="center" />
<edge id="c7809-0-re" from="4c889" to="cafed" shape="-2495318.0454,3462566.56484 -2495336.3058,3462600.37651 -2495551.4765999997,3462986.0530600008" priority="-1" numLanes="1" speed="110.0" allow="rail rail_electric" spreadType="center" />
<!-- Track 4a2d9c21-7c6f-4af6-88aa-e7aefb61f15b -->
<edge id="1f15b-0" from="cafed" to="a3343" shape="-2495551.4765999997,3462986.0530600008 -2495566.34365,3463036.3671899997" priority="-1" numLanes="1" speed="110.0" allow="rail rail_electric" spreadType="center" />
<edge id="1f15b-0-re" from="a3343" to="cafed" shape="-2495566.34365,3463036.3671899997 -2495551.4765999997,3462986.0530600008" priority="-1" numLanes="1" speed="110.0" allow="rail rail_electric" spreadType="center" />
<!-- Track 057bd93c-88d8-4729-bfc7-6e75d0d54cc2 -->
<edge id="54cc2-0" from="4c889" to="d053a" shape="-2495318.0454,3462566.56484 -2495275.3629099997,3462471.4147699997" priority="-1" numLanes="1" speed="110.0" allow="rail rail_electric" spreadType="center" />
<edge id="54cc2-0-re" from="d053a" to="4c889" shape="-2495275.3629099997,3462471.4147699997 -2495318.0454,3462566.56484" priority="-1" numLanes="1" speed="110.0" allow="rail rail_electric" spreadType="center" />
<!-- Track 96feea7e-75f6-410e-ac33-34dd8ff8483f -->
<edge id="8483f-0" from="4c889" to="0c39e" shape="-2495318.0454,3462566.56484 -2495261.22944,3462466.0143" priority="-1" numLanes="1" speed="110.0" allow="rail rail_electric" spreadType="center" />
<edge id="8483f-0-re" from="0c39e" to="4c889" shape="-2495261.22944,3462466.0143 -2495318.0454,3462566.56484" priority="-1" numLanes="1" speed="110.0" allow="rail rail_electric" spreadType="center" />
<!-- Track 0fc03329-bdeb-49b5-bfbb-d13bb3252ba1 -->
<edge id="52ba1-0" from="d053a" to="b8070" shape="-2495275.3629099997,3462471.4147699997 -2495247.65842,3462423.4483199995 -2495179.00108,3462297.0050300006 -2494949.94752,3461888.1476799995 -2494784.43721,3461589.2829" priority="-1" numLanes="1" speed="110.0" allow="rail rail_electric" spreadType="center" />
<edge id="52ba1-0-re" from="b8070" to="d053a" shape="-2494784.43721,3461589.2829 -2494949.94752,3461888.1476799995 -2495179.00108,3462297.0050300006 -2495247.65842,3462423.4483199995 -2495275.3629099997,3462471.4147699997" priority="-1" numLanes="1" speed="110.0" allow="rail rail_electric" spreadType="center" />
<!-- Track a2860f8e-46fe-4090-9b61-36cdef2ed63b -->
<edge id="ed63b-0" from="d053a" to="7d42e" shape="-2495275.3629099997,3462471.4147699997 -2495302.56032,3462519.2630899996 -2495343.4118600003,3462577.7074100003" priority="-1" numLanes="1" speed="110.0" allow="rail rail_electric" spreadType="center" />
<edge id="ed63b-0-re" from="7d42e" to="d053a" shape="-2495343.4118600003,3462577.7074100003 -2495302.56032,3462519.2630899996 -2495275.3629099997,3462471.4147699997" priority="-1" numLanes="1" speed="110.0" allow="rail rail_electric" spreadType="center" />
<!-- Track 2ffcbed0-6ca3-4d8d-8807-77926648d004 -->
<edge id="8d004-0" from="92d71" to="18bc5" shape="-2503676.4045200003,3464880.5900599994 -2503635.0706700003,3465052.0235200003 -2503607.12248,3465120.9571400005 -2503579.73271,3465171.946249999 -2503552.3815200003,3465210.82446 -2503519.99755,3465253.85527 -2503484.10566,3465285.53331 -2503441.80859,3465312.84437 -2503393.6775,3465336.92815 -2503344.40879,3465354.9221400004 -2503290.9331799997,3465368.62108 -2503225.22822,3465381.620580001 -2503161.70919,3465388.0903699994 -2503114.7375499997,3465390.035460001 -2503064.22402,3465388.0879100002 -2503002.5785600003,3465382.1909800004 -2502939.97027,3465373.77052 -2502696.49747,3465323.1018000003" priority="-1" numLanes="1" speed="110.0" allow="rail rail_electric" spreadType="center" />
<edge id="8d004-0-re" from="18bc5" to="92d71" shape="-2502696.49747,3465323.1018000003 -2502939.97027,3465373.77052 -2503002.5785600003,3465382.1909800004 -2503064.22402,3465388.0879100002 -2503114.7375499997,3465390.035460001 -2503161.70919,3465388.0903699994 -2503225.22822,3465381.620580001 -2503290.9331799997,3465368.62108 -2503344.40879,3465354.9221400004 -2503393.6775,3465336.92815 -2503441.80859,3465312.84437 -2503484.10566,3465285.53331 -2503519.99755,3465253.85527 -2503552.3815200003,3465210.82446 -2503579.73271,3465171.946249999 -2503607.12248,3465120.9571400005 -2503635.0706700003,3465052.0235200003 -2503676.4045200003,3464880.5900599994" priority="-1" numLanes="1" speed="110.0" allow="rail rail_electric" spreadType="center" />
<!-- Track 38d9e56c-c3f1-47db-9eb4-24bd6b3de3a2 -->
<edge id="de3a2-0" from="597fd" to="60f4e" shape="-2504315.19839,3467381.2208900005 -2504196.30494,3467499.842049999 -2504114.68729,3467550.73412 -2504048.82027,3467584.3089000005 -2503977.56959,3467611.1882700007 -2503823.6388,3467651.6997599993 -2503736.82881,3467662.6912900005 -2503642.80157,3467670.1144399997 -2503560.23568,3467672.0382000003 -2503477.22757,3467666.7933900002 -2503415.06655,3467661.3092 -2503350.53566,3467653.1525299996 -2503249.2369,3467635.2567999996 -2502769.90934,3467539.5478499997" priority="-1" numLanes="1" speed="110.0" allow="rail rail_electric" spreadType="center" />
<edge id="de3a2-0-re" from="60f4e" to="597fd" shape="-2502769.90934,3467539.5478499997 -2503249.2369,3467635.2567999996 -2503350.53566,3467653.1525299996 -2503415.06655,3467661.3092 -2503477.22757,3467666.7933900002 -2503560.23568,3467672.0382000003 -2503642.80157,3467670.1144399997 -2503736.82881,3467662.6912900005 -2503823.6388,3467651.6997599993 -2503977.56959,3467611.1882700007 -2504048.82027,3467584.3089000005 -2504114.68729,3467550.73412 -2504196.30494,3467499.842049999 -2504315.19839,3467381.2208900005" priority="-1" numLanes="1" speed="110.0" allow="rail rail_electric" spreadType="center" />
<!-- Track 90ea0f6e-01e4-4d32-a848-006246870671 -->
<edge id="70671-0" from="597fd" to="c898b" shape="-2504315.19839,3467381.2208900005 -2504239.28466,3467447.2822399996 -2504180.33148,3467493.5557199996 -2504100.13129,3467541.94929 -2504035.99351,3467573.0474900007 -2503962.7979800003,3467599.45806 -2503869.35323,3467622.69878 -2503813.91494,3467635.32814 -2503728.31624,3467647.142449999 -2503638.13174,3467653.1389799993 -2503560.65835,3467654.410940001 -2503473.71402,3467650.9798600003 -2503416.5269299997,3467645.70256 -2503362.1894300003,3467639.0051000006 -2503260.61771,3467621.4599900004 -2502347.22414,3467436.5157200005 -2502285.9478599997,3467423.9185300004 -2502080.05701,3467379.258509999 -2501552.0682800002,3467258.6395999994 -2501238.06836,3467195.82739" priority="-1" numLanes="1" speed="110.0" allow="rail rail_electric" spreadType="center" />
<edge id="70671-0-re" from="c898b" to="597fd" shape="-2501238.06836,3467195.82739 -2501552.0682800002,3467258.6395999994 -2502080.05701,3467379.258509999 -2502285.9478599997,3467423.9185300004 -2502347.22414,3467436.5157200005 -2503260.61771,3467621.4599900004 -2503362.1894300003,3467639.0051000006 -2503416.5269299997,3467645.70256 -2503473.71402,3467650.9798600003 -2503560.65835,3467654.410940001 -2503638.13174,3467653.1389799993 -2503728.31624,3467647.142449999 -2503813.91494,3467635.32814 -2503869.35323,3467622.69878 -2503962.7979800003,3467599.45806 -2504035.99351,3467573.0474900007 -2504100.13129,3467541.94929 -2504180.33148,3467493.5557199996 -2504239.28466,3467447.2822399996 -2504315.19839,3467381.2208900005" priority="-1" numLanes="1" speed="110.0" allow="rail rail_electric" spreadType="center" />
<!-- Track ce0de3d7-39a4-4fbd-87e3-1d34412dac4f -->
<edge id="dac4f-0" from="597fd" to="c3c32" shape="-2504315.19839,3467381.2208900005 -2504374.91192,3467310.9570700005" priority="-1" numLanes="1" speed="110.0" allow="rail rail_electric" spreadType="center" />
<edge id="dac4f-0-re" from="c3c32" to="597fd" shape="-2504374.91192,3467310.9570700005 -2504315.19839,3467381.2208900005" priority="-1" numLanes="1" speed="110.0" allow="rail rail_electric" spreadType="center" />
<!-- Track da5796f5-ba8c-40bf-b36d-f7182b78da92 -->
<edge id="8da92-0" from="60f4e" to="4c4ff" shape="-2502769.90934,3467539.5478499997 -2502697.76023,3467525.5081900004" priority="-1" numLanes="1" speed="110.0" allow="rail rail_electric" spreadType="center" />
<edge id="8da92-0-re" from="4c4ff" to="60f4e" shape="-2502697.76023,3467525.5081900004 -2502769.90934,3467539.5478499997" priority="-1" numLanes="1" speed="110.0" allow="rail rail_electric" spreadType="center" />
<!-- Track 55b3a58c-d35a-43e9-89c3-e3c2f3e9e395 -->
<edge id="9e395-0" from="60f4e" to="6fd9f" shape="-2502769.90934,3467539.5478499997 -2502871.4633400002,3467565.5168500002 -2502942.75788,3467580.7814099994" priority="-1" numLanes="1" speed="110.0" allow="rail rail_electric" spreadType="center" />
<edge id="9e395-0-re" from="6fd9f" to="60f4e" shape="-2502942.75788,3467580.7814099994 -2502871.4633400002,3467565.5168500002 -2502769.90934,3467539.5478499997" priority="-1" numLanes="1" speed="110.0" allow="rail rail_electric" spreadType="center" />
<!-- Track 128fa664-6d7d-46a3-8f9c-3ecaccda163c -->
<edge id="a163c-0" from="4c4ff" to="137f1" shape="-2502697.76023,3467525.5081900004 -2502271.8737000003,3467440.74873 -2501991.25064,3467384.1340299994 -2501754.26764,3467336.96999" priority="-1" numLanes="1" speed="110.0" allow="rail rail_electric" spreadType="center" />
<edge id="a163c-0-re" from="137f1" to="4c4ff" shape="-2501754.26764,3467336.96999 -2501991.25064,3467384.1340299994 -2502271.8737000003,3467440.74873 -2502697.76023,3467525.5081900004" priority="-1" numLanes="1" speed="110.0" allow="rail rail_electric" spreadType="center" />
<!-- Track b48aec13-45ce-4d77-ad25-67d0d5e350cb -->
<edge id="350cb-0" from="4c4ff" to="4126f" shape="-2502697.76023,3467525.5081900004 -2502585.30262,3467508.6943699997 -2502538.0035300003,3467500.4087799992" priority="-1" numLanes="1" speed="110.0" allow="rail rail_electric" spreadType="center" />
<edge id="350cb-0-re" from="4126f" to="4c4ff" shape="-2502538.0035300003,3467500.4087799992 -2502585.30262,3467508.6943699997 -2502697.76023,3467525.5081900004" priority="-1" numLanes="1" speed="110.0" allow="rail rail_electric" spreadType="center" />
<!-- Track 01519228-23a5-4f77-822d-411cfb27990c -->